@<TRIPOS>MOLECULE
YAFCER
    87    99     2     0     0
SMALL
NO_CHARGES
****
Generated from the CSD

@<TRIPOS>ATOM
     1 C1       6.6828   4.5551  10.2533   C.2       1 RES1   0.0000
     2 C2       3.8405   5.2499   3.7679   C.2       1 RES1   0.0000
     3 C3       2.9780   4.3791   4.4352   C.2       1 RES1   0.0000
     4 C4       3.5376   4.1769   5.7620   C.2       1 RES1   0.0000
     5 C5       3.5897   5.6545   2.4683   C.2       1 RES1   0.0000
     6 H1       4.1795   6.2454   2.0157   H         1 RES1   0.0000
     7 C6       2.4487   5.1680   1.8491   C.2       1 RES1   0.0000
     8 H2       2.2478   5.4426   0.9623   H         1 RES1   0.0000
     9 C7       1.5906   4.2851   2.5005   C.2       1 RES1   0.0000
    10 H3       0.8264   3.9545   2.0431   H         1 RES1   0.0000
    11 C8       1.8335   3.8765   3.8113   C.2       1 RES1   0.0000
    12 H4       1.2452   3.2812   4.2613   H         1 RES1   0.0000
    13 C9       4.7360   3.4204   9.7027   C.2       1 RES1   0.0000
    14 C10      3.6931   2.4707  10.0235   C.2       1 RES1   0.0000
    15 C11      2.9363   2.3018   8.8570   C.2       1 RES1   0.0000
    16 C12      3.5074   3.2090   7.8726   C.2       1 RES1   0.0000
    17 C13      3.3680   1.7931  11.1913   C.2       1 RES1   0.0000
    18 H5       3.8667   1.9222  11.9897   H         1 RES1   0.0000
    19 C14      2.2918   0.9213  11.1515   C.2       1 RES1   0.0000
    20 H6       2.0366   0.4625  11.9430   H         1 RES1   0.0000
    21 C15      1.5689   0.7009   9.9705   C.2       1 RES1   0.0000
    22 H7       0.8561   0.0727   9.9662   H         1 RES1   0.0000
    23 C16      1.8838   1.3876   8.8097   C.2       1 RES1   0.0000
    24 H8       1.3974   1.2415   8.0068   H         1 RES1   0.0000
    25 C17      8.1364   3.2687   7.0670   C.2       1 RES1   0.0000
    26 H9       8.7222   3.8878   7.4853   H         1 RES1   0.0000
    27 C18      6.3881   2.3281   6.2519   C.2       1 RES1   0.0000
    28 H10      5.4873   2.1735   5.9933   H         1 RES1   0.0000
    29 C19      7.4091   1.4675   6.0560   C.2       1 RES1   0.0000
    30 H11      7.3688   0.6157   5.6374   H         1 RES1   0.0000
    31 Fe1      5.7980   5.0568   7.4802   Fe        1 RES1   0.0000
    32 N1       6.8992   5.2054   9.0582   N.2       1 RES1   0.0000
    33 N2       4.6020   3.8563   8.4104   N.2       1 RES1   0.0000
    34 N3       5.6832   3.7491  10.5692   N.2       1 RES1   0.0000
    35 N4       2.9793   3.3820   6.6650   N.2       1 RES1   0.0000
    36 N5       6.8482   3.4649   6.8840   N.2       1 RES1   0.0000
    37 N6       8.5103   2.0723   6.5818   N.pl3     1 RES1   0.0000
    38 H12      9.3245   1.8204   6.5676   H         1 RES1   0.0000
    39 C1B      4.9133   5.5584   4.7071   C.2       1 RES1   0.0000
    40 C2B      7.7556   4.8636  11.1925   C.2       1 RES1   0.0000
    41 C3B      8.6181   5.7344  10.5252   C.2       1 RES1   0.0000
    42 C4B      8.0585   5.9366   9.1984   C.2       1 RES1   0.0000
    43 C5B      8.0064   4.4590  12.4921   C.2       1 RES1   0.0000
    44 H1B      7.4166   3.8681  12.9447   H         1 RES1   0.0000
    45 C6B      9.1474   4.9455  13.1113   C.2       1 RES1   0.0000
    46 H2B      9.3483   4.6709  13.9981   H         1 RES1   0.0000
    47 C7B     10.0055   5.8284  12.4599   C.2       1 RES1   0.0000
    48 H3B     10.7697   6.1590  12.9173   H         1 RES1   0.0000
    49 C8B      9.7626   6.2370  11.1491   C.2       1 RES1   0.0000
    50 H4B     10.3509   6.8323  10.6991   H         1 RES1   0.0000
    51 C9B      6.8600   6.6931   5.2577   C.2       1 RES1   0.0000
    52 C10B     7.9030   7.6428   4.9369   C.2       1 RES1   0.0000
    53 C11B     8.6598   7.8117   6.1034   C.2       1 RES1   0.0000
    54 C12B     8.0887   6.9045   7.0878   C.2       1 RES1   0.0000
    55 C13B     8.2281   8.3204   3.7691   C.2       1 RES1   0.0000
    56 H5B      7.7294   8.1913   2.9707   H         1 RES1   0.0000
    57 C14B     9.3043   9.1922   3.8089   C.2       1 RES1   0.0000
    58 H6B      9.5595   9.6510   3.0174   H         1 RES1   0.0000
    59 C15B    10.0272   9.4126   4.9899   C.2       1 RES1   0.0000
    60 H7B     10.7400  10.0408   4.9942   H         1 RES1   0.0000
    61 C16B     9.7123   8.7259   6.1507   C.2       1 RES1   0.0000
    62 H8B     10.1987   8.8720   6.9536   H         1 RES1   0.0000
    63 N1B      4.6968   4.9081   5.9022   N.2       1 RES1   0.0000
    64 N2B      6.9940   6.2572   6.5500   N.2       1 RES1   0.0000
    65 N3B      5.9128   6.3644   4.3912   N.2       1 RES1   0.0000
    66 N4B      8.6167   6.7315   8.2954   N.2       1 RES1   0.0000
    67 C17B     3.4596   6.8448   7.8934   C.2       1 RES1   0.0000
    68 H9B      2.8738   6.2257   7.4751   H         1 RES1   0.0000
    69 C18B     5.2079   7.7854   8.7084   C.2       1 RES1   0.0000
    70 H10B     6.1088   7.9400   8.9671   H         1 RES1   0.0000
    71 C19B     4.1869   8.6460   8.9044   C.2       1 RES1   0.0000
    72 H11B     4.2272   9.4978   9.3230   H         1 RES1   0.0000
    73 N5B      4.7479   6.6486   8.0764   N.2       1 RES1   0.0000
    74 N6B      3.0858   8.0412   8.3786   N.pl3     1 RES1   0.0000
    75 H12B     2.2716   8.2931   8.3928   H         1 RES1   0.0000
    76 C20     11.8736   3.1392   7.6238   C.2       2 RES2   0.0000
    77 H13     12.5687   3.6148   7.1842   H         2 RES2   0.0000
    78 C21     10.7378   2.6730   9.7153   C.3       2 RES2   0.0000
    79 H14     10.2388   2.0496   9.1474   H         2 RES2   0.0000
    80 H15     10.1138   3.2973  10.1418   H         2 RES2   0.0000
    81 H16     11.2205   2.1718  10.4054   H         2 RES2   0.0000
    82 C22     12.5756   4.2891   9.6330   C.3       2 RES2   0.0000
    83 H17     13.1027   3.7650  10.2715   H         2 RES2   0.0000
    84 H18     12.0531   4.9630  10.1161   H         2 RES2   0.0000
    85 H19     13.1778   4.7348   9.0008   H         2 RES2   0.0000
    86 N7      11.6796   3.4103   8.9089   N.am      2 RES2   0.0000
    87 O1      11.2364   2.3271   6.9445   O.2       2 RES2   0.0000
@<TRIPOS>BOND
     1     1    32    2
     2     2     3    2
     3     3     4    1
     4     4    35    1
     5     5     2    1
     6     6     5    1
     7     7     5    2
     8     8     7    1
     9     9     7    1
    10    10     9    1
    11    11     3    1
    12    12    11    1
    13    13    14    1
    14    14    15    2
    15    15    16    1
    16    16    33    1
    17    17    14    1
    18    18    17    1
    19    19    17    2
    20    20    19    1
    21    21    19    1
    22    22    21    1
    23    23    15    1
    24    24    23    1
    25    25    26    1
    26    27    28    1
    27    29    27    2
    28    30    29    1
    29    31    32    1
    30    32    42    1
    31    33    13    1
    32    34     1    1
    33    35    16    2
    34    36    25    2
    35    37    25    1
    36    38    37    1
    37    39     2    1
    38    40     1    1
    39    41    40    2
    40    42    41    1
    41    43    40    1
    42    44    43    1
    43    45    43    2
    44    46    45    1
    45    47    45    1
    46    48    47    1
    47    49    41    1
    48    50    49    1
    49    51    52    2
    50    52    53    1
    51    53    54    2
    52    54    64    1
    53    55    52    1
    54    56    55    1
    55    57    55    2
    56    58    57    1
    57    59    57    1
    58    60    59    1
    59    61    53    1
    60    62    61    1
    61    63     4    2
    62    64    31    1
    63    65    39    2
    64    66    42    2
    65    67    68    1
    66    69    70    1
    67    71    69    2
    68    72    71    1
    69    73    31    1
    70    74    67    1
    71    75    74    1
    72     9    11    2
    73    13    34    2
    74    21    23    2
    75    27    36    1
    76    29    37    1
    77    31    33    1
    78    31    36    1
    79    31    63    1
    80    39    63    1
    81    47    49    2
    82    51    64    1
    83    51    65    1
    84    54    66    1
    85    59    61    2
    86    67    73    2
    87    69    73    1
    88    71    74    1
    89    76    77    1
    90    78    79    1
    91    80    78    1
    92    81    78    1
    93    82    83    1
    94    84    82    1
    95    85    82    1
    96    86    76   am
    97    87    76    2
    98    78    86    1
    99    82    86    1
@<TRIPOS>SUBSTRUCTURE
     1 RES1        1 GROUP             0 ****  ****    0  
     2 RES2       76 GROUP             0 ****  ****    0  
@<TRIPOS>CRYSIN
   12.3076   10.1135   14.9773   90.0000   92.7230   90.0000   231     1
