@<TRIPOS>MOLECULE
YAFCIV
    85    97     2     0     0
SMALL
NO_CHARGES
****
Generated from the CSD

@<TRIPOS>ATOM
     1 Fe1      5.3307   5.1147   7.7127   Fe        1 RES1   0.0000
     2 N1       4.2822   5.2160   6.0849   N.2       1 RES1   0.0000
     3 C1       4.5988   4.6114   4.8976   C.2       1 RES1   0.0000
     4 N2       5.6266   3.8258   4.6212   N.2       1 RES1   0.0000
     5 C2       6.5312   3.5097   5.5408   C.2       1 RES1   0.0000
     6 N3       6.6043   3.9506   6.8435   N.2       1 RES1   0.0000
     7 C3       7.6924   3.3327   7.4243   C.2       1 RES1   0.0000
     8 N4       8.1407   3.4821   8.6677   N.2       1 RES1   0.0000
     9 C4       7.5220   4.2636   9.5407   C.2       1 RES1   0.0000
    10 C5       7.9869   4.4181  10.9182   C.2       1 RES1   0.0000
    11 C6       7.0684   5.2835  11.5367   C.2       1 RES1   0.0000
    12 C7       7.2340   5.6753  12.8587   C.2       1 RES1   0.0000
    13 C8       8.3281   5.1689  13.5559   C.2       1 RES1   0.0000
    14 C9       9.2290   4.2851  12.9497   C.2       1 RES1   0.0000
    15 C10      9.0726   3.9056  11.6169   C.2       1 RES1   0.0000
    16 C11      8.3371   2.4407   6.4664   C.2       1 RES1   0.0000
    17 C12      7.6265   2.5788   5.2693   C.2       1 RES1   0.0000
    18 C13      8.0008   1.8955   4.1201   C.2       1 RES1   0.0000
    19 C14      9.0833   1.0506   4.1973   C.2       1 RES1   0.0000
    20 C15      9.7910   0.8787   5.4005   C.2       1 RES1   0.0000
    21 C16      9.4259   1.5712   6.5389   C.2       1 RES1   0.0000
    22 N5       6.3286   6.7463   7.1142   N.2       1 RES1   0.0000
    23 N6       7.6504   6.9509   7.2808   N.pl3     1 RES1   0.0000
    24 C17      8.0379   8.1416   6.7918   C.2       1 RES1   0.0000
    25 C18      6.9323   8.7482   6.2797   C.2       1 RES1   0.0000
    26 C19      5.8802   7.8490   6.5034   C.2       1 RES1   0.0000
    27 H1       6.6369   6.2645  13.2736   H         1 RES1   0.0000
    28 H2       8.4639   5.4318  14.4521   H         1 RES1   0.0000
    29 H3       9.9355   3.9322  13.4479   H         1 RES1   0.0000
    30 H4       9.6680   3.3338  11.2082   H         1 RES1   0.0000
    31 H5       7.5366   1.9958   3.3365   H         1 RES1   0.0000
    32 H6       9.3441   0.5780   3.4337   H         1 RES1   0.0000
    33 H7      10.5098   0.2834   5.4236   H         1 RES1   0.0000
    34 H8       9.8905   1.4608   7.3179   H         1 RES1   0.0000
    35 H9       8.9197   8.4812   6.8026   H         1 RES1   0.0000
    36 H10      6.8969   9.6003   5.8787   H         1 RES1   0.0000
    37 H11      4.9808   8.0045   6.2689   H         1 RES1   0.0000
    38 H12      8.1598   6.4138   7.7127   H         1 RES1   0.0000
    39 N1B      6.3792   5.0134   9.3406   N.2       1 RES1   0.0000
    40 C1B      6.0626   5.6180  10.5279   C.2       1 RES1   0.0000
    41 N2B      5.0348   6.4036  10.8043   N.2       1 RES1   0.0000
    42 C2B      4.1302   6.7197   9.8847   C.2       1 RES1   0.0000
    43 N3B      4.0571   6.2788   8.5820   N.2       1 RES1   0.0000
    44 C3B      2.9690   6.8967   8.0012   C.2       1 RES1   0.0000
    45 N4B      2.5207   6.7473   6.7578   N.2       1 RES1   0.0000
    46 C4B      3.1394   5.9658   5.8848   C.2       1 RES1   0.0000
    47 C5B      2.6745   5.8113   4.5073   C.2       1 RES1   0.0000
    48 C6B      3.5931   4.9459   3.8888   C.2       1 RES1   0.0000
    49 C7B      3.4274   4.5541   2.5668   C.2       1 RES1   0.0000
    50 C8B      2.3333   5.0605   1.8696   C.2       1 RES1   0.0000
    51 C9B      1.4324   5.9443   2.4758   C.2       1 RES1   0.0000
    52 C10B     1.5888   6.3238   3.8086   C.2       1 RES1   0.0000
    53 C11B     2.3243   7.7887   8.9591   C.2       1 RES1   0.0000
    54 C12B     3.0349   7.6506  10.1561   C.2       1 RES1   0.0000
    55 C13B     2.6606   8.3339  11.3053   C.2       1 RES1   0.0000
    56 C14B     1.5781   9.1788  11.2282   C.2       1 RES1   0.0000
    57 C15B     0.8704   9.3507  10.0250   C.2       1 RES1   0.0000
    58 C16B     1.2355   8.6582   8.8866   C.2       1 RES1   0.0000
    59 H1B      4.0245   3.9649   2.1519   H         1 RES1   0.0000
    60 H2B      2.1975   4.7976   0.9733   H         1 RES1   0.0000
    61 H3B      0.7259   6.2972   1.9775   H         1 RES1   0.0000
    62 H4B      0.9934   6.8956   4.2173   H         1 RES1   0.0000
    63 H5B      3.1248   8.2336  12.0890   H         1 RES1   0.0000
    64 H6B      1.3173   9.6514  11.9918   H         1 RES1   0.0000
    65 H7B      0.1516   9.9460  10.0019   H         1 RES1   0.0000
    66 H8B      0.7709   8.7686   8.1076   H         1 RES1   0.0000
    67 N5B      4.3328   3.4831   8.3113   N.2       1 RES1   0.0000
    68 N6B      3.0110   3.2785   8.1447   N.pl3     1 RES1   0.0000
    69 C17B     2.6235   2.0878   8.6336   C.2       1 RES1   0.0000
    70 C18B     3.7291   1.4812   9.1458   C.2       1 RES1   0.0000
    71 C19B     4.7812   2.3804   8.9221   C.2       1 RES1   0.0000
    72 H9B      1.7417   1.7482   8.6228   H         1 RES1   0.0000
    73 H10B     3.7645   0.6291   9.5468   H         1 RES1   0.0000
    74 H11B     5.6806   2.2249   9.1566   H         1 RES1   0.0000
    75 H12B     2.5016   3.8156   7.7127   H         1 RES1   0.0000
    76 O1       0.6049   4.0150   6.9091   O.2       2 RES2   0.0000
    77 C20     -0.0111   4.0324   5.9851   C.2       2 RES2   0.0000
    78 C21     -1.0295   4.4856   5.3665   C.3       2 RES2   0.0000
    79 C22      0.7699   3.0023   5.0056   C.3       2 RES2   0.0000
    80 H13      0.0996   2.5717   4.4873   H         2 RES2   0.0000
    81 H14      1.3435   3.4678   4.4101   H         2 RES2   0.0000
    82 H15      1.2474   2.3763   5.5362   H         2 RES2   0.0000
    83 H16     -1.5113   5.1116   5.9465   H         2 RES2   0.0000
    84 H17     -0.7386   4.9510   4.5551   H         2 RES2   0.0000
    85 H18     -1.6221   3.7440   5.1243   H         2 RES2   0.0000
@<TRIPOS>BOND
     1     1     2    1
     2     2     3    1
     3     3     4    2
     4     4     5    1
     5     5     6    1
     6     6     1    1
     7     7     6    1
     8     8     7    1
     9     9     8    2
    10    10     9    1
    11    11    10    2
    12    12    11    1
    13    13    12    2
    14    14    13    1
    15    15    10    1
    16    16     7    2
    17    17     5    2
    18    18    17    1
    19    19    18    2
    20    20    19    1
    21    21    16    1
    22    22     1    1
    23    23    22    1
    24    24    23    1
    25    25    24    2
    26    26    22    2
    27    27    12    1
    28    28    13    1
    29    29    14    1
    30    30    15    1
    31    31    18    1
    32    32    19    1
    33    33    20    1
    34    34    21    1
    35    35    24    1
    36    36    25    1
    37    37    26    1
    38    38    23    1
    39    39     1    1
    40    40    11    1
    41    41    40    1
    42    42    41    2
    43    43     1    1
    44    44    43    1
    45    45    44    2
    46    46     2    2
    47    47    46    1
    48    48     3    1
    49    49    48    1
    50    50    49    2
    51    51    50    1
    52    52    47    1
    53    53    44    1
    54    54    42    1
    55    55    54    1
    56    56    55    2
    57    57    56    1
    58    58    53    1
    59    59    49    1
    60    60    50    1
    61    61    51    1
    62    62    52    1
    63    63    55    1
    64    64    56    1
    65    65    57    1
    66    66    58    1
    67    67     1    1
    68    68    67    1
    69    69    68    1
    70    70    69    2
    71    71    67    2
    72    72    69    1
    73    73    70    1
    74    74    71    1
    75    75    68    1
    76     9    39    1
    77    14    15    2
    78    16    17    1
    79    20    21    2
    80    25    26    1
    81    39    40    2
    82    42    43    1
    83    45    46    1
    84    47    48    2
    85    51    52    2
    86    53    54    2
    87    57    58    2
    88    70    71    1
    89    76    77    2
    90    77    78    1
    91    78    83    1
    92    79    77    1
    93    80    79    1
    94    81    79    1
    95    82    79    1
    96    84    78    1
    97    85    78    1
@<TRIPOS>SUBSTRUCTURE
     1 RES1        1 GROUP             0 ****  ****    0  
     2 RES2       76 GROUP             0 ****  ****    0  
@<TRIPOS>CRYSIN
   11.9120   10.2294   15.4761   90.0000   94.6350   90.0000   231     1
