@<TRIPOS>MOLECULE
YAGBIS
    87    94     4     0     0
SMALL
USER_CHARGES
****
Generated from the CSD

@<TRIPOS>ATOM
     1 Fe1      7.1895   0.0673   4.7035   Fe        1 RES1  -2.0000
     2 C1       8.9937   0.0974   4.0283   C.1       1 RES1   0.0000
     3 N1      10.0555   0.0863   3.5944   N.1       1 RES1   0.0000
     4 N2       7.1259   3.1409   4.4836   N.1       1 RES1   0.0000
     5 C2       7.1462   2.0076   4.5380   C.1       1 RES1   0.0000
     6 C3       5.2766   0.0580   5.0263   C.1       1 RES1   0.0000
     7 N3       4.1628   0.0805   5.2490   N.1       1 RES1   0.0000
     8 C4       7.2275  -1.8656   4.5347   C.1       1 RES1   0.0000
     9 N4       7.2932  -3.0057   4.4209   N.1       1 RES1   0.0000
    10 N5       6.4162   0.0035   1.7222   N.1       1 RES1   0.0000
    11 C5       6.6935   0.0387   2.8406   C.1       1 RES1   0.0000
    12 N6       7.5589   0.0469   6.3130   N.2       1 RES1   0.0000
    13 O1       7.7633   0.0199   7.4396   O.2       1 RES1   0.0000
    14 Na1      4.4609   5.8541   3.8999   Na        2 RES2   1.0000
    15 O2       6.6630   5.9702   4.7912   O.3       2 RES2   0.0000
    16 H1       7.2026   6.4295   4.3219   H         2 RES2   0.0000
    17 H2       6.8667   5.1441   4.7706   H         2 RES2   0.0000
    18 N7       4.7901   7.1999   1.9251   N.ar      2 RES2   0.0000
    19 N8       4.4831   4.4816   1.8838   N.ar      2 RES2   0.0000
    20 N9       3.2135   7.5063   5.3380   N.ar      2 RES2   0.0000
    21 N10      3.4999   4.8233   5.8610   N.ar      2 RES2   0.0000
    22 C6       4.9341   8.5226   1.9300   C.ar      2 RES2   0.0000
    23 H3       4.9969   8.9518   2.7515   H         2 RES2   0.0000
    24 C7       4.9954   9.2991   0.7819   C.ar      2 RES2   0.0000
    25 H4       5.0877  10.2240   0.8380   H         2 RES2   0.0000
    26 C8       4.9207   8.6863  -0.4190   C.ar      2 RES2   0.0000
    27 H5       4.9583   9.1929  -1.1976   H         2 RES2   0.0000
    28 C9       4.7854   7.2946  -0.5015   C.ar      2 RES2   0.0000
    29 C10      4.7104   6.5822  -1.7354   C.ar      2 RES2   0.0000
    30 H6       4.7457   7.0535  -2.5371   H         2 RES2   0.0000
    31 C11      4.5902   5.2569  -1.7618   C.ar      2 RES2   0.0000
    32 H7       4.5461   4.8188  -2.5816   H         2 RES2   0.0000
    33 C12      4.5293   4.5002  -0.5609   C.ar      2 RES2   0.0000
    34 C13      4.4366   3.1041  -0.5559   C.ar      2 RES2   0.0000
    35 H8       4.4073   2.6351  -1.3576   H         2 RES2   0.0000
    36 C14      4.3881   2.4315   0.6285   C.ar      2 RES2   0.0000
    37 H9       4.3361   1.5023   0.6417   H         2 RES2   0.0000
    38 C15      4.4147   3.1506   1.8195   C.ar      2 RES2   0.0000
    39 H10      4.3825   2.6749   2.6179   H         2 RES2   0.0000
    40 C16      4.5629   5.1432   0.6978   C.ar      2 RES2   0.0000
    41 C17      4.6997   6.5910   0.7225   C.ar      2 RES2   0.0000
    42 C18      2.9849   8.7881   5.0923   C.ar      2 RES2   0.0000
    43 H11      3.0707   9.0890   4.2163   H         2 RES2   0.0000
    44 C19      2.6268   9.7018   6.0639   C.ar      2 RES2   0.0000
    45 H12      2.4453  10.5868   5.8362   H         2 RES2   0.0000
    46 C20      2.5449   9.2925   7.3555   C.ar      2 RES2   0.0000
    47 H13      2.3383   9.9054   8.0236   H         2 RES2   0.0000
    48 C21      2.7701   7.9473   7.6871   C.ar      2 RES2   0.0000
    49 C22      2.6687   7.4406   9.0150   C.ar      2 RES2   0.0000
    50 H14      2.4989   8.0247   9.7160   H         2 RES2   0.0000
    51 C23      2.8180   6.1353   9.2657   C.ar      2 RES2   0.0000
    52 H15      2.7573   5.8322  10.1433   H         2 RES2   0.0000
    53 C24      3.0680   5.1905   8.2166   C.ar      2 RES2   0.0000
    54 C25      3.1616   3.8077   8.4129   C.ar      2 RES2   0.0000
    55 H16      3.0579   3.4559   9.2690   H         2 RES2   0.0000
    56 C26      3.4003   2.9758   7.3786   C.ar      2 RES2   0.0000
    57 H17      3.4494   2.0554   7.5056   H         2 RES2   0.0000
    58 C27      3.5681   3.5312   6.1249   C.ar      2 RES2   0.0000
    59 H18      3.7409   2.9537   5.4156   H         2 RES2   0.0000
    60 C28      3.2279   5.6529   6.8986   C.ar      2 RES2   0.0000
    61 C29      3.0815   7.0712   6.6297   C.ar      2 RES2   0.0000
    62 N11      1.3023   6.4386  -0.4784   N.ar      3 RES3   0.0000
    63 N12      1.1503   3.7880  -1.0194   N.ar      3 RES3   1.0000
    64 H19      1.2259   4.3852  -1.6347   H         3 RES3   0.0000
    65 C30      1.3771   7.7260  -0.1782   C.ar      3 RES3   0.0000
    66 H20      1.4905   8.3301  -0.8776   H         3 RES3   0.0000
    67 C31      1.3003   8.2283   1.1085   C.ar      3 RES3   0.0000
    68 H21      1.3486   9.1443   1.2553   H         3 RES3   0.0000
    69 C32      1.1535   7.3831   2.1511   C.ar      3 RES3   0.0000
    70 H22      1.0990   7.7150   3.0187   H         3 RES3   0.0000
    71 C33      1.0815   5.9892   1.9168   C.ar      3 RES3   0.0000
    72 C34      0.9469   4.9870   2.9313   C.ar      3 RES3   0.0000
    73 H23      0.9030   5.2503   3.8221   H         3 RES3   0.0000
    74 C35      0.8827   3.6794   2.6344   C.ar      3 RES3   0.0000
    75 H24      0.7962   3.0577   3.3190   H         3 RES3   0.0000
    76 C36      0.9452   3.2303   1.2768   C.ar      3 RES3   0.0000
    77 C37      0.8780   1.8850   0.8924   C.ar      3 RES3   0.0000
    78 H25      0.7630   1.2279   1.5374   H         3 RES3   0.0000
    79 C38      0.9806   1.5333  -0.4256   C.ar      3 RES3   0.0000
    80 H26      0.9616   0.6372  -0.6730   H         3 RES3   0.0000
    81 C39      1.1084   2.5090  -1.3708   C.ar      3 RES3   0.0000
    82 H27      1.1690   2.2744  -2.2698   H         3 RES3   0.0000
    83 C40      1.0768   4.1929   0.2788   C.ar      3 RES3   0.0000
    84 C41      1.1555   5.5998   0.5625   C.ar      3 RES3   0.0000
    85 O3      11.9364   0.9824   5.3496   O.3       4 RES4   0.0000
    86 H28     11.3588   0.7124   4.7970   H         4 RES4   0.0000
    87 H29     12.3328   0.2323   5.4667   H         4 RES4   0.0000
@<TRIPOS>BOND
     1     1     2    1
     2     2     3    3
     3     4     5    3
     4     5     1    1
     5     6     1    1
     6     7     6    3
     7     8     1    1
     8     9     8    3
     9    10    11    3
    10    11     1    1
    11    12     1    1
    12    13    12    2
    13    14    15    1
    14    15    16    1
    15    17    15    1
    16    18    14    1
    17    19    14    1
    18    20    14    1
    19    21    14    1
    20    22    18   ar
    21    23    22    1
    22    24    22   ar
    23    25    24    1
    24    26    24   ar
    25    27    26    1
    26    28    26   ar
    27    29    28   ar
    28    30    29    1
    29    31    29   ar
    30    32    31    1
    31    33    31   ar
    32    34    33   ar
    33    35    34    1
    34    36    34   ar
    35    37    36    1
    36    38    19   ar
    37    39    38    1
    38    40    19   ar
    39    41    18   ar
    40    42    20   ar
    41    43    42    1
    42    44    42   ar
    43    45    44    1
    44    46    44   ar
    45    47    46    1
    46    48    46   ar
    47    49    48   ar
    48    50    49    1
    49    51    49   ar
    50    52    51    1
    51    53    51   ar
    52    54    53   ar
    53    55    54    1
    54    56    54   ar
    55    57    56    1
    56    58    21   ar
    57    59    58    1
    58    60    21   ar
    59    61    20   ar
    60    28    41   ar
    61    33    40   ar
    62    36    38   ar
    63    40    41   ar
    64    48    61   ar
    65    53    60   ar
    66    56    58   ar
    67    60    61   ar
    68    62    65   ar
    69    63    64    1
    70    65    66    1
    71    67    65   ar
    72    68    67    1
    73    69    67   ar
    74    70    69    1
    75    71    69   ar
    76    72    71   ar
    77    73    72    1
    78    74    72   ar
    79    75    74    1
    80    76    74   ar
    81    77    76   ar
    82    78    77    1
    83    79    77   ar
    84    80    79    1
    85    81    63   ar
    86    82    81    1
    87    83    63   ar
    88    84    62   ar
    89    71    84   ar
    90    76    83   ar
    91    79    81   ar
    92    83    84   ar
    93    85    86    1
    94    87    85    1
@<TRIPOS>SUBSTRUCTURE
     1 RES1        1 GROUP             0 ****  ****    0  
     2 RES2       14 GROUP             0 ****  ****    0  
     3 RES3       62 GROUP             0 ****  ****    0  
     4 RES4       85 GROUP             0 ****  ****    0  
@<TRIPOS>CRYSIN
   10.4290   22.1250   19.4350   90.0000  121.9220   90.0000    14     1
