@<TRIPOS>MOLECULE
YAGYUB01
    84    88     2     0     0
SMALL
USER_CHARGES
****
Generated from the CSD

@<TRIPOS>ATOM
     1 Fe1      0.0000   0.0000   0.0000   Fe        1 RES1   2.0000
     2 I1       5.2023  -3.5799  -0.6943   I         1 RES1   0.0000
     3 I2       5.3132   2.0830  -2.5120   I         1 RES1   0.0000
     4 I3       5.1903   1.2895   3.4225   I         1 RES1   0.0000
     5 N1       1.2260  -1.2390  -1.3428   N.2       1 RES1   0.0000
     6 N2       1.9096  -0.7683  -2.4577   N.2       1 RES1   0.0000
     7 N3       2.6456  -1.6863  -2.9710   N.2       1 RES1   0.0000
     8 N4       2.3891  -2.7557  -2.2980   N.pl3     1 RES1   0.0000
     9 N5       1.2841   1.7584  -0.4068   N.2       1 RES1   0.0000
    10 N6       1.2942  -0.5591   1.7134   N.2       1 RES1   0.0000
    11 N7       1.9150   2.5285   0.5346   N.2       1 RES1   0.0000
    12 N8       1.8748  -1.7223   1.9008   N.2       1 RES1   0.0000
    13 N9       2.6297   3.4266  -0.0064   N.2       1 RES1   0.0000
    14 N10      2.4343   3.2950  -1.2991   N.pl3     1 RES1   0.0000
    15 N11      2.6644  -1.7440   2.9380   N.2       1 RES1   0.0000
    16 N12      2.4593  -0.5537   3.4725   N.pl3     1 RES1   0.0000
    17 C1       1.5227  -2.4816  -1.2778   C.2       1 RES1   0.0000
    18 C2       2.9852  -4.0741  -2.6515   C.3       1 RES1   0.0000
    19 C3       4.4771  -3.9983  -2.6622   C.3       1 RES1   0.0000
    20 C4       1.6012   2.2688  -1.5419   C.2       1 RES1   0.0000
    21 C5       1.6391   0.1984   2.7058   C.2       1 RES1   0.0000
    22 C6       2.9834   4.2598  -2.3108   C.3       1 RES1   0.0000
    23 C7       3.0589  -0.0884   4.8047   C.3       1 RES1   0.0000
    24 C8       4.5136   4.0651  -2.3853   C.3       1 RES1   0.0000
    25 C9       4.5639  -0.1587   4.7174   C.3       1 RES1   0.0000
    26 H1       1.1911  -3.1705  -0.5101   H         1 RES1   0.0000
    27 H2       2.6149  -4.8478  -1.9594   H         1 RES1   0.0000
    28 H3       2.6239  -4.3590  -3.6312   H         1 RES1   0.0000
    29 H4       4.8847  -3.2824  -3.2265   H         1 RES1   0.0000
    30 H5       4.8449  -5.0317  -2.8858   H         1 RES1   0.0000
    31 H6       1.3157   1.8883  -2.5184   H         1 RES1   0.0000
    32 H7       1.3879   1.2282   2.8687   H         1 RES1   0.0000
    33 H8       2.5841   4.0723  -3.2798   H         1 RES1   0.0000
    34 H9       2.8679   5.2427  -1.9807   H         1 RES1   0.0000
    35 H10      2.7160   0.8242   5.0922   H         1 RES1   0.0000
    36 H11      2.8275  -0.9017   5.5267   H         1 RES1   0.0000
    37 H12      5.0144   4.1841  -1.4908   H         1 RES1   0.0000
    38 H13      4.8972   4.6891  -3.2052   H         1 RES1   0.0000
    39 H14      4.9835  -0.9739   4.2595   H         1 RES1   0.0000
    40 H15      5.0269   0.1803   5.6012   H         1 RES1   0.0000
    41 N1B     -1.2260   1.2390   1.3428   N.2       1 RES1   0.0000
    42 N2B     -1.9096   0.7683   2.4577   N.2       1 RES1   0.0000
    43 N3B     -2.6456   1.6863   2.9710   N.2       1 RES1   0.0000
    44 N4B     -2.3891   2.7557   2.2980   N.pl3     1 RES1   0.0000
    45 C1B     -1.5227   2.4816   1.2778   C.2       1 RES1   0.0000
    46 H1B     -1.1911   3.1705   0.5101   H         1 RES1   0.0000
    47 C2B     -2.9852   4.0741   2.6515   C.3       1 RES1   0.0000
    48 C3B     -4.4771   3.9983   2.6622   C.3       1 RES1   0.0000
    49 I1B     -5.2023   3.5799   0.6943   I         1 RES1   0.0000
    50 H4B     -4.8847   3.2824   3.2265   H         1 RES1   0.0000
    51 H5B     -4.8449   5.0317   2.8858   H         1 RES1   0.0000
    52 H2B     -2.6149   4.8478   1.9594   H         1 RES1   0.0000
    53 H3B     -2.6239   4.3590   3.6312   H         1 RES1   0.0000
    54 N5B     -1.2841  -1.7584   0.4068   N.2       1 RES1   0.0000
    55 N7B     -1.9150  -2.5285  -0.5346   N.2       1 RES1   0.0000
    56 N9B     -2.6297  -3.4266   0.0064   N.2       1 RES1   0.0000
    57 N10B    -2.4343  -3.2950   1.2991   N.pl3     1 RES1   0.0000
    58 C4B     -1.6012  -2.2688   1.5419   C.2       1 RES1   0.0000
    59 H6B     -1.3157  -1.8883   2.5184   H         1 RES1   0.0000
    60 C6B     -2.9834  -4.2598   2.3108   C.3       1 RES1   0.0000
    61 C8B     -4.5136  -4.0651   2.3853   C.3       1 RES1   0.0000
    62 I2B     -5.3132  -2.0830   2.5120   I         1 RES1   0.0000
    63 H12B    -5.0144  -4.1841   1.4908   H         1 RES1   0.0000
    64 H13B    -4.8972  -4.6891   3.2052   H         1 RES1   0.0000
    65 H8B     -2.5841  -4.0723   3.2798   H         1 RES1   0.0000
    66 H9B     -2.8679  -5.2427   1.9807   H         1 RES1   0.0000
    67 N6B     -1.2942   0.5591  -1.7134   N.2       1 RES1   0.0000
    68 N8B     -1.8748   1.7223  -1.9008   N.2       1 RES1   0.0000
    69 N11B    -2.6644   1.7440  -2.9380   N.2       1 RES1   0.0000
    70 N12B    -2.4593   0.5537  -3.4725   N.pl3     1 RES1   0.0000
    71 C5B     -1.6391  -0.1984  -2.7058   C.2       1 RES1   0.0000
    72 H7B     -1.3879  -1.2282  -2.8687   H         1 RES1   0.0000
    73 C7B     -3.0589   0.0884  -4.8047   C.3       1 RES1   0.0000
    74 C9B     -4.5639   0.1587  -4.7174   C.3       1 RES1   0.0000
    75 I3B     -5.1903  -1.2895  -3.4225   I         1 RES1   0.0000
    76 H14B    -4.9835   0.9739  -4.2595   H         1 RES1   0.0000
    77 H15B    -5.0269  -0.1803  -5.6012   H         1 RES1   0.0000
    78 H10B    -2.7160  -0.8242  -5.0922   H         1 RES1   0.0000
    79 H11B    -2.8275   0.9017  -5.5267   H         1 RES1   0.0000
    80 B1       0.0302   2.8297   5.2072   B         2 RES2  -1.0000
    81 F1       1.3625   3.0713   5.2391   F         2 RES2   0.0000
    82 F2      -0.2992   3.0335   3.9187   F         2 RES2   0.0000
    83 F3      -0.2459   1.6358   5.7716   F         2 RES2   0.0000
    84 F4      -0.5130   3.7026   6.0697   F         2 RES2   0.0000
@<TRIPOS>BOND
     1     1     5    1
     2     2    19    1
     3     3    24    1
     4     4    25    1
     5     5     6    1
     6     6     7    2
     7     7     8    1
     8     8    17    1
     9     9     1    1
    10    10     1    1
    11    11     9    1
    12    12    10    1
    13    13    11    2
    14    14    13    1
    15    15    12    2
    16    16    15    1
    17    17     5    2
    18    18     8    1
    19    19    18    1
    20    20     9    2
    21    21    10    2
    22    22    14    1
    23    23    16    1
    24    24    22    1
    25    25    23    1
    26    26    17    1
    27    27    18    1
    28    28    18    1
    29    29    19    1
    30    30    19    1
    31    31    20    1
    32    32    21    1
    33    33    22    1
    34    34    22    1
    35    35    23    1
    36    36    23    1
    37    37    24    1
    38    38    24    1
    39    39    25    1
    40    40    25    1
    41    41     1    1
    42    42    41    1
    43    43    42    2
    44    44    43    1
    45    45    41    2
    46    46    45    1
    47    47    44    1
    48    48    47    1
    49    49    48    1
    50    50    48    1
    51    51    48    1
    52    52    47    1
    53    53    47    1
    54    54     1    1
    55    55    54    1
    56    56    55    2
    57    57    56    1
    58    58    54    2
    59    59    58    1
    60    60    57    1
    61    61    60    1
    62    62    61    1
    63    63    61    1
    64    64    61    1
    65    65    60    1
    66    66    60    1
    67    67     1    1
    68    68    67    1
    69    69    68    2
    70    70    69    1
    71    71    67    2
    72    72    71    1
    73    73    70    1
    74    74    73    1
    75    75    74    1
    76    76    74    1
    77    77    74    1
    78    78    73    1
    79    79    73    1
    80    14    20    1
    81    16    21    1
    82    44    45    1
    83    57    58    1
    84    70    71    1
    85    80    81    1
    86    82    80    1
    87    83    80    1
    88    84    80    1
@<TRIPOS>SUBSTRUCTURE
     1 RES1        1 GROUP             0 ****  ****    0  
     2 RES2       80 GROUP             0 ****  ****    0  
@<TRIPOS>CRYSIN
   12.6425   18.0349   10.6488   90.0000   90.3080   90.0000    14     1
