@<TRIPOS>MOLECULE
YAGYIP01
    84    88     2     0     0
SMALL
USER_CHARGES
****
Generated from the CSD

@<TRIPOS>ATOM
     1 Fe1      0.0000   0.0000   0.0000   Fe        1 RES1   2.0000
     2 Br1     -4.9625  -2.6491   3.3546   Br        1 RES1   0.0000
     3 Br2     -4.7842   2.5335   3.2844   Br        1 RES1   0.0000
     4 Br3     -5.0584  -1.0481  -3.2216   Br        1 RES1   0.0000
     5 N1      -1.3256  -1.5938   0.7931   N.2       1 RES1   0.0000
     6 N2      -1.1312  -2.3329   1.9214   N.2       1 RES1   0.0000
     7 N3      -2.1461  -3.1117   2.1069   N.2       1 RES1   0.0000
     8 N4      -3.0140  -2.9346   1.1713   N.pl3     1 RES1   0.0000
     9 N5      -1.4068   1.4962   0.8486   N.2       1 RES1   0.0000
    10 N6      -1.1757   0.1012  -1.8879   N.2       1 RES1   0.0000
    11 N7      -2.0502   1.3716   2.0660   N.2       1 RES1   0.0000
    12 N8      -0.9550  -0.6126  -3.0047   N.2       1 RES1   0.0000
    13 N9      -2.8442   2.3528   2.3300   N.2       1 RES1   0.0000
    14 N10     -2.8569   3.0991   1.2467   N.pl3     1 RES1   0.0000
    15 N11     -1.7847  -0.3289  -3.9853   N.2       1 RES1   0.0000
    16 N12     -2.5668   0.5746  -3.5485   N.pl3     1 RES1   0.0000
    17 C1      -2.5102  -1.9661   0.3876   C.2       1 RES1   0.0000
    18 C2      -4.3169  -3.6918   1.0026   C.3       1 RES1   0.0000
    19 C3      -5.4162  -2.9112   1.6260   C.3       1 RES1   0.0000
    20 C4      -2.0261   2.5787   0.3269   C.2       1 RES1   0.0000
    21 C5      -2.2264   0.8583  -2.2651   C.2       1 RES1   0.0000
    22 C6      -3.7265   4.3062   1.2300   C.3       1 RES1   0.0000
    23 C7      -3.6203   1.0770  -4.4222   C.3       1 RES1   0.0000
    24 C8      -4.4759   4.3839   2.5982   C.3       1 RES1   0.0000
    25 C9      -4.9042   0.8150  -3.5820   C.3       1 RES1   0.0000
    26 H1      -2.9826  -1.5649  -0.5144   H         1 RES1   0.0000
    27 H2      -4.5201  -3.8671  -0.0859   H         1 RES1   0.0000
    28 H3      -4.2281  -4.6785   1.4458   H         1 RES1   0.0000
    29 H4      -6.3446  -3.4135   1.4877   H         1 RES1   0.0000
    30 H5      -5.4435  -1.9354   1.1210   H         1 RES1   0.0000
    31 H6      -1.8265   2.9871  -0.6464   H         1 RES1   0.0000
    32 H7      -2.7299   1.5956  -1.6553   H         1 RES1   0.0000
    33 H8      -3.1219   5.1844   1.0896   H         1 RES1   0.0000
    34 H9      -4.4744   4.2231   0.4610   H         1 RES1   0.0000
    35 H10     -3.5045   2.1341  -4.5888   H         1 RES1   0.0000
    36 H11     -3.6259   0.5313  -5.3431   H         1 RES1   0.0000
    37 H12     -5.3466   4.9423   2.4935   H         1 RES1   0.0000
    38 H13     -3.7771   4.8845   3.3106   H         1 RES1   0.0000
    39 H14     -5.7397   1.2451  -4.1278   H         1 RES1   0.0000
    40 H15     -4.7855   1.4149  -2.6611   H         1 RES1   0.0000
    41 N1B      1.3256   1.5938  -0.7931   N.2       1 RES1   0.0000
    42 N2B      1.1312   2.3329  -1.9214   N.2       1 RES1   0.0000
    43 N3B      2.1461   3.1117  -2.1069   N.2       1 RES1   0.0000
    44 N4B      3.0140   2.9346  -1.1713   N.pl3     1 RES1   0.0000
    45 C1B      2.5102   1.9661  -0.3876   C.2       1 RES1   0.0000
    46 H1B      2.9826   1.5649   0.5144   H         1 RES1   0.0000
    47 C2B      4.3169   3.6918  -1.0026   C.3       1 RES1   0.0000
    48 C3B      5.4162   2.9112  -1.6260   C.3       1 RES1   0.0000
    49 Br1B     4.9625   2.6491  -3.3546   Br        1 RES1   0.0000
    50 H4B      6.3446   3.4135  -1.4877   H         1 RES1   0.0000
    51 H5B      5.4435   1.9354  -1.1210   H         1 RES1   0.0000
    52 H2B      4.5201   3.8671   0.0859   H         1 RES1   0.0000
    53 H3B      4.2281   4.6785  -1.4458   H         1 RES1   0.0000
    54 N5B      1.4068  -1.4962  -0.8486   N.2       1 RES1   0.0000
    55 N7B      2.0502  -1.3716  -2.0660   N.2       1 RES1   0.0000
    56 N9B      2.8442  -2.3528  -2.3300   N.2       1 RES1   0.0000
    57 N10B     2.8569  -3.0991  -1.2467   N.pl3     1 RES1   0.0000
    58 C4B      2.0261  -2.5787  -0.3269   C.2       1 RES1   0.0000
    59 H6B      1.8265  -2.9871   0.6464   H         1 RES1   0.0000
    60 C6B      3.7265  -4.3062  -1.2300   C.3       1 RES1   0.0000
    61 C8B      4.4759  -4.3839  -2.5982   C.3       1 RES1   0.0000
    62 Br2B     4.7842  -2.5335  -3.2844   Br        1 RES1   0.0000
    63 H12B     5.3466  -4.9423  -2.4935   H         1 RES1   0.0000
    64 H13B     3.7771  -4.8845  -3.3106   H         1 RES1   0.0000
    65 H8B      3.1219  -5.1844  -1.0896   H         1 RES1   0.0000
    66 H9B      4.4744  -4.2231  -0.4610   H         1 RES1   0.0000
    67 N6B      1.1757  -0.1012   1.8879   N.2       1 RES1   0.0000
    68 N8B      0.9550   0.6126   3.0047   N.2       1 RES1   0.0000
    69 N11B     1.7847   0.3289   3.9853   N.2       1 RES1   0.0000
    70 N12B     2.5668  -0.5746   3.5485   N.pl3     1 RES1   0.0000
    71 C5B      2.2264  -0.8583   2.2651   C.2       1 RES1   0.0000
    72 H7B      2.7299  -1.5956   1.6553   H         1 RES1   0.0000
    73 C7B      3.6203  -1.0770   4.4222   C.3       1 RES1   0.0000
    74 C9B      4.9042  -0.8150   3.5820   C.3       1 RES1   0.0000
    75 Br3B     5.0584   1.0481   3.2216   Br        1 RES1   0.0000
    76 H14B     5.7397  -1.2451   4.1278   H         1 RES1   0.0000
    77 H15B     4.7855  -1.4149   2.6611   H         1 RES1   0.0000
    78 H10B     3.5045  -2.1341   4.5888   H         1 RES1   0.0000
    79 H11B     3.6259  -0.5313   5.3431   H         1 RES1   0.0000
    80 B1       0.3207   3.3738   5.2268   B         2 RES2  -1.0000
    81 F1       0.3015   4.6857   5.6574   F         2 RES2   0.0000
    82 F2       0.8680   2.7558   6.2305   F         2 RES2   0.0000
    83 F3      -0.9539   3.1388   5.0393   F         2 RES2   0.0000
    84 F4       1.0389   3.4207   4.1310   F         2 RES2   0.0000
@<TRIPOS>BOND
     1     1     5    1
     2     2    19    1
     3     3    24    1
     4     4    25    1
     5     5     6    1
     6     6     7    2
     7     7     8    1
     8     8    17    1
     9     9     1    1
    10    10     1    1
    11    11     9    1
    12    12    10    1
    13    13    11    2
    14    14    13    1
    15    15    12    2
    16    16    15    1
    17    17     5    2
    18    18     8    1
    19    19    18    1
    20    20     9    2
    21    21    10    2
    22    22    14    1
    23    23    16    1
    24    24    22    1
    25    25    23    1
    26    26    17    1
    27    27    18    1
    28    28    18    1
    29    29    19    1
    30    30    19    1
    31    31    20    1
    32    32    21    1
    33    33    22    1
    34    34    22    1
    35    35    23    1
    36    36    23    1
    37    37    24    1
    38    38    24    1
    39    39    25    1
    40    40    25    1
    41    41     1    1
    42    42    41    1
    43    43    42    2
    44    44    43    1
    45    45    41    2
    46    46    45    1
    47    47    44    1
    48    48    47    1
    49    49    48    1
    50    50    48    1
    51    51    48    1
    52    52    47    1
    53    53    47    1
    54    54     1    1
    55    55    54    1
    56    56    55    2
    57    57    56    1
    58    58    54    2
    59    59    58    1
    60    60    57    1
    61    61    60    1
    62    62    61    1
    63    63    61    1
    64    64    61    1
    65    65    60    1
    66    66    60    1
    67    67     1    1
    68    68    67    1
    69    69    68    2
    70    70    69    1
    71    71    67    2
    72    72    71    1
    73    73    70    1
    74    74    73    1
    75    75    74    1
    76    76    74    1
    77    77    74    1
    78    78    73    1
    79    79    73    1
    80    14    20    1
    81    16    21    1
    82    44    45    1
    83    57    58    1
    84    70    71    1
    85    80    81    1
    86    82    80    1
    87    83    80    1
    88    84    80    1
@<TRIPOS>SUBSTRUCTURE
     1 RES1        1 GROUP             0 ****  ****    0  
     2 RES2       80 GROUP             0 ****  ****    0  
@<TRIPOS>CRYSIN
   12.2832   18.0705   10.4767   90.0000   90.1060   90.0000    14     1
