@<TRIPOS>MOLECULE
YAGYIP
    84    88     2     0     0
SMALL
USER_CHARGES
****
Generated from the CSD

@<TRIPOS>ATOM
     1 Fe1      0.0000   0.0000   0.0000   Fe        1 RES1   2.0000
     2 Br1      4.8248  -2.5104   2.9761   Br        1 RES1   0.0000
     3 Br2     -4.6891  -1.0369   3.5697   Br        1 RES1   0.0000
     4 Br3     -4.8415  -2.3803  -2.8517   Br        1 RES1   0.0000
     5 N1       1.5679  -1.2652   0.5864   N.2       1 RES1   0.0000
     6 N2       2.3623  -0.9988   1.5729   N.2       1 RES1   0.0000
     7 N3       3.2404  -1.9367   1.7550   N.2       1 RES1   0.0000
     8 N4       3.1722  -2.7848   0.7541   N.pl3     1 RES1   0.0000
     9 N5      -0.8277   0.0160   1.7880   N.2       1 RES1   0.0000
    10 N6      -1.3624  -1.5055  -0.4475   N.2       1 RES1   0.0000
    11 N7      -0.4661  -0.7982   2.8095   N.2       1 RES1   0.0000
    12 N8      -1.2791  -2.4178  -1.3734   N.2       1 RES1   0.0000
    13 N9      -1.1936  -0.5167   3.8228   N.2       1 RES1   0.0000
    14 N10     -2.0538   0.4508   3.4936   N.pl3     1 RES1   0.0000
    15 N11     -2.3217  -3.2035  -1.4145   N.2       1 RES1   0.0000
    16 N12     -3.0755  -2.7723  -0.4784   N.pl3     1 RES1   0.0000
    17 C1       2.1390  -2.3483   0.0051   C.2       1 RES1   0.0000
    18 C2       4.0681  -3.9821   0.5648   C.3       1 RES1   0.0000
    19 C3       4.8008  -4.1015   1.8692   C.3       1 RES1   0.0000
    20 C4      -1.8178   0.7661   2.2344   C.2       1 RES1   0.0000
    21 C5      -2.5434  -1.7282   0.1193   C.2       1 RES1   0.0000
    22 C6      -3.0247   1.0173   4.5079   C.3       1 RES1   0.0000
    23 C7      -4.3711  -3.4369  -0.2222   C.3       1 RES1   0.0000
    24 C8      -4.4790   0.5238   4.6232   C.3       1 RES1   0.0000
    25 C9      -5.2611  -2.4053  -0.9958   C.3       1 RES1   0.0000
    26 H1       1.7714  -2.8275  -0.9053   H         1 RES1   0.0000
    27 H2       3.4716  -4.9103   0.4012   H         1 RES1   0.0000
    28 H3       4.7361  -3.8663  -0.2778   H         1 RES1   0.0000
    29 H4       5.7742  -4.4899   1.6357   H         1 RES1   0.0000
    30 H5       4.2473  -4.8818   2.4175   H         1 RES1   0.0000
    31 H6      -2.3308   1.5323   1.6954   H         1 RES1   0.0000
    32 H7      -2.9918  -1.1830   0.9320   H         1 RES1   0.0000
    33 H8      -2.5880   0.8908   5.4832   H         1 RES1   0.0000
    34 H9      -3.1131   2.0685   4.3001   H         1 RES1   0.0000
    35 H10     -4.4022  -4.4150  -0.6790   H         1 RES1   0.0000
    36 H11     -4.6047  -3.4387   0.8230   H         1 RES1   0.0000
    37 H12     -5.1172   1.2935   4.3721   H         1 RES1   0.0000
    38 H13     -4.5921   0.2316   5.6889   H         1 RES1   0.0000
    39 H14     -5.1298  -1.4396  -0.4938   H         1 RES1   0.0000
    40 H15     -6.2990  -2.7438  -0.7818   H         1 RES1   0.0000
    41 N1B     -1.5679   1.2652  -0.5864   N.2       1 RES1   0.0000
    42 N2B     -2.3623   0.9988  -1.5729   N.2       1 RES1   0.0000
    43 N3B     -3.2404   1.9367  -1.7550   N.2       1 RES1   0.0000
    44 N4B     -3.1722   2.7848  -0.7541   N.pl3     1 RES1   0.0000
    45 C1B     -2.1390   2.3483  -0.0051   C.2       1 RES1   0.0000
    46 H1B     -1.7714   2.8275   0.9053   H         1 RES1   0.0000
    47 C2B     -4.0681   3.9821  -0.5648   C.3       1 RES1   0.0000
    48 C3B     -4.8008   4.1015  -1.8692   C.3       1 RES1   0.0000
    49 Br1B    -4.8248   2.5104  -2.9761   Br        1 RES1   0.0000
    50 H4B     -5.7742   4.4899  -1.6357   H         1 RES1   0.0000
    51 H5B     -4.2473   4.8818  -2.4175   H         1 RES1   0.0000
    52 H2B     -3.4716   4.9103  -0.4012   H         1 RES1   0.0000
    53 H3B     -4.7361   3.8663   0.2778   H         1 RES1   0.0000
    54 N5B      0.8277  -0.0160  -1.7880   N.2       1 RES1   0.0000
    55 N7B      0.4661   0.7982  -2.8095   N.2       1 RES1   0.0000
    56 N9B      1.1936   0.5167  -3.8228   N.2       1 RES1   0.0000
    57 N10B     2.0538  -0.4508  -3.4936   N.pl3     1 RES1   0.0000
    58 C4B      1.8178  -0.7661  -2.2344   C.2       1 RES1   0.0000
    59 H6B      2.3308  -1.5323  -1.6954   H         1 RES1   0.0000
    60 C6B      3.0247  -1.0173  -4.5079   C.3       1 RES1   0.0000
    61 C8B      4.4790  -0.5238  -4.6232   C.3       1 RES1   0.0000
    62 Br2B     4.6891   1.0369  -3.5697   Br        1 RES1   0.0000
    63 H12B     5.1172  -1.2935  -4.3721   H         1 RES1   0.0000
    64 H13B     4.5921  -0.2316  -5.6889   H         1 RES1   0.0000
    65 H8B      2.5880  -0.8908  -5.4832   H         1 RES1   0.0000
    66 H9B      3.1131  -2.0685  -4.3001   H         1 RES1   0.0000
    67 N6B      1.3624   1.5055   0.4475   N.2       1 RES1   0.0000
    68 N8B      1.2791   2.4178   1.3734   N.2       1 RES1   0.0000
    69 N11B     2.3217   3.2035   1.4145   N.2       1 RES1   0.0000
    70 N12B     3.0755   2.7723   0.4784   N.pl3     1 RES1   0.0000
    71 C5B      2.5434   1.7282  -0.1193   C.2       1 RES1   0.0000
    72 H7B      2.9918   1.1830  -0.9320   H         1 RES1   0.0000
    73 C7B      4.3711   3.4369   0.2222   C.3       1 RES1   0.0000
    74 C9B      5.2611   2.4053   0.9958   C.3       1 RES1   0.0000
    75 Br3B     4.8415   2.3803   2.8517   Br        1 RES1   0.0000
    76 H14B     5.1298   1.4396   0.4938   H         1 RES1   0.0000
    77 H15B     6.2990   2.7438   0.7818   H         1 RES1   0.0000
    78 H10B     4.4022   4.4150   0.6790   H         1 RES1   0.0000
    79 H11B     4.6047   3.4387  -0.8230   H         1 RES1   0.0000
    80 B1      -0.0439   5.3736  10.1166   B         2 RES2  -1.0000
    81 F1      -0.1929   4.4524  11.1906   F         2 RES2   0.0000
    82 F2       0.2470   4.7126   9.0128   F         2 RES2   0.0000
    83 F3      -1.1951   5.9615  10.1012   F         2 RES2   0.0000
    84 F4       0.9415   6.0649  10.5703   F         2 RES2   0.0000
@<TRIPOS>BOND
     1     1     5    1
     2     2    19    1
     3     3    24    1
     4     4    25    1
     5     5     6    1
     6     6     7    2
     7     7     8    1
     8     8    17    1
     9     9     1    1
    10    10     1    1
    11    11     9    1
    12    12    10    1
    13    13    11    2
    14    14    13    1
    15    15    12    2
    16    16    15    1
    17    17     5    2
    18    18     8    1
    19    19    18    1
    20    20     9    2
    21    21    10    2
    22    22    14    1
    23    23    16    1
    24    24    22    1
    25    25    23    1
    26    26    17    1
    27    27    18    1
    28    28    18    1
    29    29    19    1
    30    30    19    1
    31    31    20    1
    32    32    21    1
    33    33    22    1
    34    34    22    1
    35    35    23    1
    36    36    23    1
    37    37    24    1
    38    38    24    1
    39    39    25    1
    40    40    25    1
    41    41     1    1
    42    42    41    1
    43    43    42    2
    44    44    43    1
    45    45    41    2
    46    46    45    1
    47    47    44    1
    48    48    47    1
    49    49    48    1
    50    50    48    1
    51    51    48    1
    52    52    47    1
    53    53    47    1
    54    54     1    1
    55    55    54    1
    56    56    55    2
    57    57    56    1
    58    58    54    2
    59    59    58    1
    60    60    57    1
    61    61    60    1
    62    62    61    1
    63    63    61    1
    64    64    61    1
    65    65    60    1
    66    66    60    1
    67    67     1    1
    68    68    67    1
    69    69    68    2
    70    70    69    1
    71    71    67    2
    72    72    71    1
    73    73    70    1
    74    74    73    1
    75    75    74    1
    76    76    74    1
    77    77    74    1
    78    78    73    1
    79    79    73    1
    80    14    20    1
    81    16    21    1
    82    44    45    1
    83    57    58    1
    84    70    71    1
    85    80    81    1
    86    82    80    1
    87    83    80    1
    88    84    80    1
@<TRIPOS>SUBSTRUCTURE
     1 RES1        1 GROUP             0 ****  ****    0  
     2 RES2       80 GROUP             0 ****  ****    0  
@<TRIPOS>CRYSIN
   11.9297   17.8169   10.2874   90.0000   89.9920   90.0000    14     1
