@<TRIPOS>MOLECULE
YAGYUB
    84    88     2     0     0
SMALL
USER_CHARGES
****
Generated from the CSD

@<TRIPOS>ATOM
     1 Fe1      0.0000   0.0000   0.0000   Fe        1 RES1   2.0000
     2 I1      -5.1695   3.4522   0.7987   I         1 RES1   0.0000
     3 I2      -5.0232  -1.3364  -3.4157   I         1 RES1   0.0000
     4 I3      -5.2118  -2.0010   2.4935   I         1 RES1   0.0000
     5 N1      -1.2112   1.1189   1.2111   N.2       1 RES1   0.0000
     6 N2      -2.0642   0.7371   2.0936   N.2       1 RES1   0.0000
     7 N3      -2.7351   1.6545   2.6484   N.2       1 RES1   0.0000
     8 N4      -2.2907   2.6851   2.0800   N.pl3     1 RES1   0.0000
     9 N5      -1.1431   0.4932  -1.5273   N.2       1 RES1   0.0000
    10 N6      -1.1083  -1.4742   0.3235   N.2       1 RES1   0.0000
    11 N7      -1.8224   1.5803  -1.4760   N.2       1 RES1   0.0000
    12 N8      -1.7600  -2.1406  -0.4920   N.2       1 RES1   0.0000
    13 N9      -2.5944   1.7624  -2.5646   N.2       1 RES1   0.0000
    14 N10     -2.2932   0.6629  -3.2137   N.pl3     1 RES1   0.0000
    15 N11     -2.4334  -3.0068   0.0628   N.2       1 RES1   0.0000
    16 N12     -2.2442  -2.9113   1.2876   N.pl3     1 RES1   0.0000
    17 C1      -1.3732   2.3333   1.1557   C.2       1 RES1   0.0000
    18 C2      -2.7592   4.0144   2.3553   C.3       1 RES1   0.0000
    19 C3      -4.0674   3.9242   2.5960   C.3       1 RES1   0.0000
    20 C4      -1.4154  -0.1255  -2.5856   C.2       1 RES1   0.0000
    21 C5      -1.4215  -1.9497   1.4205   C.2       1 RES1   0.0000
    22 C6      -2.8718   0.3129  -4.4279   C.3       1 RES1   0.0000
    23 C7      -2.7759  -3.6184   2.4286   C.3       1 RES1   0.0000
    24 C8      -4.3425   0.5904  -4.0720   C.3       1 RES1   0.0000
    25 C9      -4.1950  -3.5813   1.9680   C.3       1 RES1   0.0000
    26 H1      -0.7807   2.9520   0.4501   H         1 RES1   0.0000
    27 H2      -2.2020   4.4015   3.2555   H         1 RES1   0.0000
    28 H3      -2.6643   4.6489   1.5283   H         1 RES1   0.0000
    29 H4      -4.3309   4.7904   3.0671   H         1 RES1   0.0000
    30 H5      -4.2470   3.0404   3.2869   H         1 RES1   0.0000
    31 H6      -1.0169  -1.0783  -2.8787   H         1 RES1   0.0000
    32 H7      -1.0592  -1.5555   2.3448   H         1 RES1   0.0000
    33 H8      -2.5941   0.9545  -5.1816   H         1 RES1   0.0000
    34 H9      -2.8090  -0.6717  -4.6582   H         1 RES1   0.0000
    35 H10     -2.4636  -4.5959   2.3658   H         1 RES1   0.0000
    36 H11     -2.7570  -3.1288   3.3288   H         1 RES1   0.0000
    37 H12     -4.8132   0.8131  -5.0037   H         1 RES1   0.0000
    38 H13     -4.4242   1.3257  -3.3288   H         1 RES1   0.0000
    39 H14     -4.5840  -4.4722   2.5332   H         1 RES1   0.0000
    40 H15     -4.1856  -3.8712   0.9421   H         1 RES1   0.0000
    41 N1B      1.2112  -1.1189  -1.2111   N.2       1 RES1   0.0000
    42 N2B      2.0642  -0.7371  -2.0936   N.2       1 RES1   0.0000
    43 N3B      2.7351  -1.6545  -2.6484   N.2       1 RES1   0.0000
    44 N4B      2.2907  -2.6851  -2.0800   N.pl3     1 RES1   0.0000
    45 C1B      1.3732  -2.3333  -1.1557   C.2       1 RES1   0.0000
    46 H1B      0.7807  -2.9520  -0.4501   H         1 RES1   0.0000
    47 C2B      2.7592  -4.0144  -2.3553   C.3       1 RES1   0.0000
    48 C3B      4.0674  -3.9242  -2.5960   C.3       1 RES1   0.0000
    49 I1B      5.1695  -3.4522  -0.7987   I         1 RES1   0.0000
    50 H4B      4.3309  -4.7904  -3.0671   H         1 RES1   0.0000
    51 H5B      4.2470  -3.0404  -3.2869   H         1 RES1   0.0000
    52 H2B      2.2020  -4.4015  -3.2555   H         1 RES1   0.0000
    53 H3B      2.6643  -4.6489  -1.5283   H         1 RES1   0.0000
    54 N5B      1.1431  -0.4932   1.5273   N.2       1 RES1   0.0000
    55 N7B      1.8224  -1.5803   1.4760   N.2       1 RES1   0.0000
    56 N9B      2.5944  -1.7624   2.5646   N.2       1 RES1   0.0000
    57 N10B     2.2932  -0.6629   3.2137   N.pl3     1 RES1   0.0000
    58 C4B      1.4154   0.1255   2.5856   C.2       1 RES1   0.0000
    59 H6B      1.0169   1.0783   2.8787   H         1 RES1   0.0000
    60 C6B      2.8718  -0.3129   4.4279   C.3       1 RES1   0.0000
    61 C8B      4.3425  -0.5904   4.0720   C.3       1 RES1   0.0000
    62 I2B      5.0232   1.3364   3.4157   I         1 RES1   0.0000
    63 H12B     4.8132  -0.8131   5.0037   H         1 RES1   0.0000
    64 H13B     4.4242  -1.3257   3.3288   H         1 RES1   0.0000
    65 H8B      2.5941  -0.9545   5.1816   H         1 RES1   0.0000
    66 H9B      2.8090   0.6717   4.6582   H         1 RES1   0.0000
    67 N6B      1.1083   1.4742  -0.3235   N.2       1 RES1   0.0000
    68 N8B      1.7600   2.1406   0.4920   N.2       1 RES1   0.0000
    69 N11B     2.4334   3.0068  -0.0628   N.2       1 RES1   0.0000
    70 N12B     2.2442   2.9113  -1.2876   N.pl3     1 RES1   0.0000
    71 C5B      1.4215   1.9497  -1.4205   C.2       1 RES1   0.0000
    72 H7B      1.0592   1.5555  -2.3448   H         1 RES1   0.0000
    73 C7B      2.7759   3.6184  -2.4286   C.3       1 RES1   0.0000
    74 C9B      4.1950   3.5813  -1.9680   C.3       1 RES1   0.0000
    75 I3B      5.2118   2.0010  -2.4935   I         1 RES1   0.0000
    76 H14B     4.5840   4.4722  -2.5332   H         1 RES1   0.0000
    77 H15B     4.1856   3.8712  -0.9421   H         1 RES1   0.0000
    78 H10B     2.4636   4.5959  -2.3658   H         1 RES1   0.0000
    79 H11B     2.7570   3.1288  -3.3288   H         1 RES1   0.0000
    80 B1       0.0325   2.8583   5.2549   B         2 RES2  -1.0000
    81 F1       0.4911   3.8694   6.0400   F         2 RES2   0.0000
    82 F2      -1.2193   3.2348   5.1712   F         2 RES2   0.0000
    83 F3       0.8234   2.8159   4.1872   F         2 RES2   0.0000
    84 F4       0.1837   1.8172   5.9877   F         2 RES2   0.0000
@<TRIPOS>BOND
     1     1     5    1
     2     2    19    1
     3     3    24    1
     4     4    25    1
     5     5     6    1
     6     6     7    2
     7     7     8    1
     8     8    17    1
     9     9     1    1
    10    10     1    1
    11    11     9    1
    12    12    10    1
    13    13    11    2
    14    14    13    1
    15    15    12    2
    16    16    15    1
    17    17     5    2
    18    18     8    1
    19    19    18    1
    20    20     9    2
    21    21    10    2
    22    22    14    1
    23    23    16    1
    24    24    22    1
    25    25    23    1
    26    26    17    1
    27    27    18    1
    28    28    18    1
    29    29    19    1
    30    30    19    1
    31    31    20    1
    32    32    21    1
    33    33    22    1
    34    34    22    1
    35    35    23    1
    36    36    23    1
    37    37    24    1
    38    38    24    1
    39    39    25    1
    40    40    25    1
    41    41     1    1
    42    42    41    1
    43    43    42    2
    44    44    43    1
    45    45    41    2
    46    46    45    1
    47    47    44    1
    48    48    47    1
    49    49    48    1
    50    50    48    1
    51    51    48    1
    52    52    47    1
    53    53    47    1
    54    54     1    1
    55    55    54    1
    56    56    55    2
    57    57    56    1
    58    58    54    2
    59    59    58    1
    60    60    57    1
    61    61    60    1
    62    62    61    1
    63    63    61    1
    64    64    61    1
    65    65    60    1
    66    66    60    1
    67    67     1    1
    68    68    67    1
    69    69    68    2
    70    70    69    1
    71    71    67    2
    72    72    71    1
    73    73    70    1
    74    74    73    1
    75    75    74    1
    76    76    74    1
    77    77    74    1
    78    78    73    1
    79    79    73    1
    80    14    20    1
    81    16    21    1
    82    44    45    1
    83    57    58    1
    84    70    71    1
    85    80    81    1
    86    82    80    1
    87    83    80    1
    88    84    80    1
@<TRIPOS>SUBSTRUCTURE
     1 RES1        1 GROUP             0 ****  ****    0  
     2 RES2       80 GROUP             0 ****  ****    0  
@<TRIPOS>CRYSIN
   12.3177   17.6766   10.4685   90.0000   90.5991   90.0000    14     1
