@<TRIPOS>MOLECULE
YAKPOT01
   109   118     1     0     0
SMALL
NO_CHARGES
****
Generated from the CSD

@<TRIPOS>ATOM
     1 Fe1      6.0397   6.4873  13.3886   Fe        1 RES1   0.0000
     2 O1       7.3783   5.1667  12.6767   O.3       1 RES1   0.0000
     3 O2       7.4356   7.6962  14.1137   O.3       1 RES1   0.0000
     4 N1       5.7698   5.1194  14.9970   N.2       1 RES1   0.0000
     5 N2       4.4317   7.4044  14.6209   N.ar      1 RES1   0.0000
     6 N3       4.4474   5.6277  12.1703   N.ar      1 RES1   0.0000
     7 N4       5.7746   7.9191  11.8295   N.2       1 RES1   0.0000
     8 C1      11.1939   1.9316  16.5615   C.3       1 RES1   0.0000
     9 H1      11.6999   2.7092  16.3111   H         1 RES1   0.0000
    10 H2      11.7688   1.3071  17.0098   H         1 RES1   0.0000
    11 H3      10.4812   2.1886  17.1492   H         1 RES1   0.0000
    12 C2       9.7800   0.0899  15.7463   C.3       1 RES1   0.0000
    13 H4       9.1214   0.3735  16.3844   H         1 RES1   0.0000
    14 H5      10.3501  -0.5697  16.1485   H         1 RES1   0.0000
    15 H6       9.3414  -0.2896  14.9816   H         1 RES1   0.0000
    16 C3      11.7541   0.7704  14.4425   C.3       1 RES1   0.0000
    17 H7      11.3983   0.4225  13.6218   H         1 RES1   0.0000
    18 H8      12.2241   0.0744  14.9066   H         1 RES1   0.0000
    19 H9      12.3581   1.4907  14.2508   H         1 RES1   0.0000
    20 C4      10.6127   1.2818  15.3137   C.3       1 RES1   0.0000
    21 C5       9.7301   2.3074  14.5864   C.ar      1 RES1   0.0000
    22 C6      10.0619   2.8438  13.3232   C.ar      1 RES1   0.0000
    23 H10     10.8373   2.5336  12.9124   H         1 RES1   0.0000
    24 C7       9.3187   3.7956  12.6536   C.ar      1 RES1   0.0000
    25 C8       8.1121   4.2856  13.2680   C.ar      1 RES1   0.0000
    26 C9       7.7634   3.7550  14.5528   C.ar      1 RES1   0.0000
    27 C10      8.5828   2.7786  15.1646   C.ar      1 RES1   0.0000
    28 H11      8.3318   2.4418  15.9948   H         1 RES1   0.0000
    29 C11     11.0306   3.6774  10.7686   C.3       1 RES1   0.0000
    30 H12     10.8435   2.7425  10.6626   H         1 RES1   0.0000
    31 H13     11.7586   3.7901  11.3846   H         1 RES1   0.0000
    32 H14     11.2693   4.0544   9.9175   H         1 RES1   0.0000
    33 C12      9.7869   4.3897  11.3115   C.3       1 RES1   0.0000
    34 C13     10.1437   5.8722  11.5207   C.3       1 RES1   0.0000
    35 H15     10.4303   6.2525  10.6876   H         1 RES1   0.0000
    36 H16     10.8524   5.9423  12.1654   H         1 RES1   0.0000
    37 H17      9.3725   6.3442  11.8402   H         1 RES1   0.0000
    38 C14      8.6969   4.2650  10.2382   C.3       1 RES1   0.0000
    39 H18      7.8881   4.6747  10.5536   H         1 RES1   0.0000
    40 H19      8.5344   3.3375  10.0533   H         1 RES1   0.0000
    41 H20      8.9857   4.7048   9.4350   H         1 RES1   0.0000
    42 C15      6.6478   4.2033  15.3124   C.2       1 RES1   0.0000
    43 H21      6.5281   3.7933  16.1378   H         1 RES1   0.0000
    44 C16      4.7338   5.4150  15.9142   C.ar      1 RES1   0.0000
    45 C17      4.3202   4.6133  16.9534   C.ar      1 RES1   0.0000
    46 H22      4.7222   3.7838  17.0759   H         1 RES1   0.0000
    47 C18      3.3003   5.0229  17.8340   C.ar      1 RES1   0.0000
    48 H23      3.0576   4.4737  18.5430   H         1 RES1   0.0000
    49 C19      2.6635   6.2199  17.6572   C.ar      1 RES1   0.0000
    50 H24      1.9985   6.4835  18.2517   H         1 RES1   0.0000
    51 C20      3.0103   7.0545  16.5792   C.ar      1 RES1   0.0000
    52 C21      4.0517   6.6544  15.6993   C.ar      1 RES1   0.0000
    53 C22      3.7901   8.5379  14.4050   C.ar      1 RES1   0.0000
    54 H25      4.0432   9.0519  13.6736   H         1 RES1   0.0000
    55 C23      2.7479   9.0119  15.2156   C.ar      1 RES1   0.0000
    56 H26      2.3226   9.8147  15.0156   H         1 RES1   0.0000
    57 C24      2.3689   8.2796  16.2992   C.ar      1 RES1   0.0000
    58 H27      1.6885   8.5866  16.8544   H         1 RES1   0.0000
    59 C25     10.1615   7.0926  15.2206   C.3       1 RES1   0.0000
    60 H28     10.5288   6.6544  15.9913   H         1 RES1   0.0000
    61 H29     10.8236   7.1276  14.5260   H         1 RES1   0.0000
    62 H30      9.3957   6.6038  14.9084   H         1 RES1   0.0000
    63 C26      8.6620   8.4762  16.6878   C.3       1 RES1   0.0000
    64 H31      7.8851   8.0217  16.3540   H         1 RES1   0.0000
    65 H32      8.4244   9.3716  16.9401   H         1 RES1   0.0000
    66 H33      9.0028   8.0075  17.4530   H         1 RES1   0.0000
    67 C27      9.7387   8.5210  15.5956   C.3       1 RES1   0.0000
    68 C28     10.9641   9.2276  16.1821   C.3       1 RES1   0.0000
    69 H34     10.7204  10.1138  16.4594   H         1 RES1   0.0000
    70 H35     11.6537   9.2798  15.5159   H         1 RES1   0.0000
    71 H36     11.2876   8.7322  16.9383   H         1 RES1   0.0000
    72 C29      9.2021   9.2562  14.3505   C.ar      1 RES1   0.0000
    73 C30      8.0400   8.7371  13.6675   C.ar      1 RES1   0.0000
    74 C31      7.5906   9.4300  12.4964   C.ar      1 RES1   0.0000
    75 C32      8.2426  10.6179  12.0832   C.ar      1 RES1   0.0000
    76 H37      7.9205  11.0664  11.3345   H         1 RES1   0.0000
    77 C33      9.3297  11.1327  12.7423   C.ar      1 RES1   0.0000
    78 C34      9.7868  10.4102  13.8723   C.ar      1 RES1   0.0000
    79 H38     10.5327  10.7373  14.3223   H         1 RES1   0.0000
    80 C35     10.2236  12.4535  10.7981   C.3       1 RES1   0.0000
    81 H39     10.6548  13.2724  10.5429   H         1 RES1   0.0000
    82 H40      9.3957  12.3657  10.3213   H         1 RES1   0.0000
    83 H41     10.7942  11.7121  10.5858   H         1 RES1   0.0000
    84 C36      9.9470  12.4701  12.3009   C.3       1 RES1   0.0000
    85 C37      8.9409  13.5861  12.6116   C.3       1 RES1   0.0000
    86 H42      8.8241  13.6554  13.5628   H         1 RES1   0.0000
    87 H43      8.0990  13.3816  12.1994   H         1 RES1   0.0000
    88 H44      9.2717  14.4197  12.2673   H         1 RES1   0.0000
    89 C38     11.2513  12.7811  13.0350   C.3       1 RES1   0.0000
    90 H45     11.6203  13.6000  12.6979   H         1 RES1   0.0000
    91 H46     11.8764  12.0666  12.8945   H         1 RES1   0.0000
    92 H47     11.0755  12.8721  13.9738   H         1 RES1   0.0000
    93 C39      6.5121   8.9854  11.6733   C.2       1 RES1   0.0000
    94 H48      6.3102   9.5187  10.9378   H         1 RES1   0.0000
    95 C40      4.7574   7.6239  10.8901   C.ar      1 RES1   0.0000
    96 C41      4.3878   8.3912   9.8013   C.ar      1 RES1   0.0000
    97 H49      4.8207   9.2007   9.6459   H         1 RES1   0.0000
    98 C42      3.3718   7.9741   8.9229   C.ar      1 RES1   0.0000
    99 H50      3.1544   8.5059   8.1913   H         1 RES1   0.0000
   100 C43      2.6991   6.8017   9.1225   C.ar      1 RES1   0.0000
   101 H51      2.0263   6.5452   8.5344   H         1 RES1   0.0000
   102 C44      3.0276   5.9826  10.2223   C.ar      1 RES1   0.0000
   103 C45      4.0631   6.3900  11.1067   C.ar      1 RES1   0.0000
   104 C46      3.8335   4.4753  12.3765   C.ar      1 RES1   0.0000
   105 H52      4.1071   3.9515  13.0946   H         1 RES1   0.0000
   106 C47      2.7874   4.0007  11.5638   C.ar      1 RES1   0.0000
   107 H53      2.3781   3.1856  11.7473   H         1 RES1   0.0000
   108 C48      2.3852   4.7515  10.5072   C.ar      1 RES1   0.0000
   109 H54      1.6863   4.4579   9.9693   H         1 RES1   0.0000
@<TRIPOS>BOND
     1     1     2    1
     2     2    25    1
     3     3     1    1
     4     4     1    1
     5     5     1    1
     6     6     1    1
     7     7     1    1
     8     8     9    1
     9    10     8    1
    10    11     8    1
    11    12    13    1
    12    14    12    1
    13    15    12    1
    14    16    17    1
    15    18    16    1
    16    19    16    1
    17    20     8    1
    18    21    20    1
    19    22    21   ar
    20    23    22    1
    21    24    22   ar
    22    25    24   ar
    23    26    25   ar
    24    27    21   ar
    25    28    27    1
    26    29    30    1
    27    31    29    1
    28    32    29    1
    29    33    24    1
    30    34    33    1
    31    35    34    1
    32    36    34    1
    33    37    34    1
    34    38    33    1
    35    39    38    1
    36    40    38    1
    37    41    38    1
    38    42     4    2
    39    43    42    1
    40    44     4    1
    41    45    44   ar
    42    46    45    1
    43    47    45   ar
    44    48    47    1
    45    49    47   ar
    46    50    49    1
    47    51    49   ar
    48    52     5   ar
    49    53     5   ar
    50    54    53    1
    51    55    53   ar
    52    56    55    1
    53    57    51   ar
    54    58    57    1
    55    59    60    1
    56    61    59    1
    57    62    59    1
    58    63    64    1
    59    65    63    1
    60    66    63    1
    61    67    59    1
    62    68    67    1
    63    69    68    1
    64    70    68    1
    65    71    68    1
    66    72    67    1
    67    73     3    1
    68    74    73   ar
    69    75    74   ar
    70    76    75    1
    71    77    75   ar
    72    78    72   ar
    73    79    78    1
    74    80    81    1
    75    82    80    1
    76    83    80    1
    77    84    77    1
    78    85    84    1
    79    86    85    1
    80    87    85    1
    81    88    85    1
    82    89    84    1
    83    90    89    1
    84    91    89    1
    85    92    89    1
    86    93     7    2
    87    94    93    1
    88    95     7    1
    89    96    95   ar
    90    97    96    1
    91    98    96   ar
    92    99    98    1
    93   100    98   ar
    94   101   100    1
    95   102   100   ar
    96   103     6   ar
    97   104     6   ar
    98   105   104    1
    99   106   104   ar
   100   107   106    1
   101   108   102   ar
   102   109   108    1
   103    12    20    1
   104    16    20    1
   105    26    27   ar
   106    26    42    1
   107    29    33    1
   108    44    52   ar
   109    51    52   ar
   110    55    57   ar
   111    63    67    1
   112    72    73   ar
   113    74    93    1
   114    77    78   ar
   115    80    84    1
   116    95   103   ar
   117   102   103   ar
   118   106   108   ar
@<TRIPOS>SUBSTRUCTURE
     1 RES1        1 GROUP             0 ****  ****    0  
@<TRIPOS>CRYSIN
   15.1152   15.8250   18.2384   90.0000  101.5460   90.0000    14     1
