@<TRIPOS>MOLECULE
YAKTOV
    77    79     1     0     0
SMALL
NO_CHARGES
****
Generated from the CSD

@<TRIPOS>ATOM
     1 Fe1     10.8952   4.5972   2.5216   Fe        1 RES1   0.0000
     2 H1       9.6623   4.6436   1.8482   H         1 RES1   0.0000
     3 P1      10.4740   6.7768   2.8141   P.3       1 RES1   0.0000
     4 P2      10.9744   2.6161   1.4719   P.3       1 RES1   0.0000
     5 C1      11.9735   7.4411   1.9662   C.3       1 RES1   0.0000
     6 H2      11.8035   8.3642   1.6498   H         1 RES1   0.0000
     7 H3      12.7376   7.4634   2.5965   H         1 RES1   0.0000
     8 C2      12.2942   6.5488   0.7997   C.ar      1 RES1   0.0000
     9 C3      13.0373   7.0142  -0.2813   C.ar      1 RES1   0.0000
    10 H4      13.3712   7.9032  -0.2855   H         1 RES1   0.0000
    11 C4      13.2850   6.1687  -1.3495   C.ar      1 RES1   0.0000
    12 H5      13.8298   6.4510  -2.0740   H         1 RES1   0.0000
    13 C5      12.7222   4.9019  -1.3415   C.ar      1 RES1   0.0000
    14 H6      12.8617   4.3120  -2.0740   H         1 RES1   0.0000
    15 C6      11.9509   4.4984  -0.2548   C.ar      1 RES1   0.0000
    16 C7      11.2104   3.2001  -0.2584   C.3       1 RES1   0.0000
    17 H7      11.7205   2.5258  -0.7725   H         1 RES1   0.0000
    18 H8      10.3296   3.3184  -0.6935   H         1 RES1   0.0000
    19 N1      11.7947   5.2927   0.8383   N.ar      1 RES1   0.0000
    20 C8      10.5372   7.6493   4.4909   C.3       1 RES1   0.0000
    21 C9       9.1825   7.5476   5.2075   C.3       1 RES1   0.0000
    22 H9       8.8771   6.6168   5.1994   H         1 RES1   0.0000
    23 H10      8.5267   8.1102   4.7462   H         1 RES1   0.0000
    24 H11      9.2798   7.8515   6.1348   H         1 RES1   0.0000
    25 C10     11.5671   6.8968   5.3391   C.3       1 RES1   0.0000
    26 H12     11.6319   7.3164   6.2219   H         1 RES1   0.0000
    27 H13     12.4405   6.9284   4.8962   H         1 RES1   0.0000
    28 H14     11.2865   5.9630   5.4413   H         1 RES1   0.0000
    29 C11     10.9782   9.1213   4.4208   C.3       1 RES1   0.0000
    30 H15     11.0352   9.4883   5.3268   H         1 RES1   0.0000
    31 H16     10.3239   9.6341   3.9012   H         1 RES1   0.0000
    32 H17     11.8558   9.1791   3.9899   H         1 RES1   0.0000
    33 C12      8.9997   7.4337   1.8177   C.3       1 RES1   0.0000
    34 C13      9.2192   7.0963   0.3282   C.3       1 RES1   0.0000
    35 H18      8.4304   7.3647  -0.1871   H         1 RES1   0.0000
    36 H19      9.3617   6.1323   0.2290   H         1 RES1   0.0000
    37 H20     10.0055   7.5787  -0.0032   H         1 RES1   0.0000
    38 C14      7.7081   6.7273   2.2686   C.3       1 RES1   0.0000
    39 H21      7.5123   6.9672   3.1980   H         1 RES1   0.0000
    40 H22      7.8247   5.7572   2.1997   H         1 RES1   0.0000
    41 H23      6.9645   7.0084   1.6950   H         1 RES1   0.0000
    42 C15      8.8071   8.9539   1.9172   C.3       1 RES1   0.0000
    43 H24      9.6459   9.4048   1.6853   H         1 RES1   0.0000
    44 H25      8.5517   9.1920   2.8335   H         1 RES1   0.0000
    45 H26      8.1021   9.2355   1.2982   H         1 RES1   0.0000
    46 C16      9.3885   1.5913   1.3569   C.3       1 RES1   0.0000
    47 C17      9.2357   0.7267   2.6176   C.3       1 RES1   0.0000
    48 H27      9.3312   1.2900   3.4141   H         1 RES1   0.0000
    49 H28      9.9267   0.0329   2.6239   H         1 RES1   0.0000
    50 H29      8.3500   0.3057   2.6207   H         1 RES1   0.0000
    51 C18      9.3444   0.7007   0.0948   C.3       1 RES1   0.0000
    52 H30     10.1153   0.0952   0.0952   H         1 RES1   0.0000
    53 H31      9.3735   1.2664  -0.7048   H         1 RES1   0.0000
    54 H32      8.5169   0.1764   0.0935   H         1 RES1   0.0000
    55 C19      8.1750   2.5283   1.2766   C.3       1 RES1   0.0000
    56 H33      7.3644   2.0002   1.1224   H         1 RES1   0.0000
    57 H34      8.2980   3.1596   0.5370   H         1 RES1   0.0000
    58 H35      8.0883   3.0232   2.1175   H         1 RES1   0.0000
    59 C20     12.4467   1.4598   1.7524   C.3       1 RES1   0.0000
    60 C21     12.4656   0.1298   0.9817   C.3       1 RES1   0.0000
    61 H36     13.3218  -0.3234   1.1321   H         1 RES1   0.0000
    62 H37     12.3524   0.3057   0.0242   H         1 RES1   0.0000
    63 H38     11.7339  -0.4410   1.2966   H         1 RES1   0.0000
    64 C22     12.5651   1.1831   3.2578   C.3       1 RES1   0.0000
    65 H39     11.8870   0.5280   3.5238   H         1 RES1   0.0000
    66 H40     12.4272   2.0167   3.7544   H         1 RES1   0.0000
    67 H41     13.4572   0.8290   3.4560   H         1 RES1   0.0000
    68 C23     13.6786   2.2657   1.2919   C.3       1 RES1   0.0000
    69 H42     13.6665   3.1502   1.7127   H         1 RES1   0.0000
    70 H43     13.6572   2.3671   0.3177   H         1 RES1   0.0000
    71 H44     14.4949   1.7909   1.5530   H         1 RES1   0.0000
    72 O1       9.3053   3.6852   4.7627   O.2       1 RES1   0.0000
    73 C24      9.9919   4.0389   3.8939   C.1       1 RES1   0.0000
    74 C25     13.3054   4.3653   4.3734   C.2       1 RES1   0.0000
    75 H45     14.3156   4.4602   4.4172   H         1 RES1   0.0000
    76 O2      12.8215   4.7323   3.2698   O.co2     1 RES1   0.0000
    77 O3      12.7247   3.8860   5.3510   O.co2     1 RES1   0.0000
@<TRIPOS>BOND
     1     1     2    1
     2     3     1    1
     3     4     1    1
     4     5     3    1
     5     6     5    1
     6     7     5    1
     7     8     5    1
     8     9     8   ar
     9    10     9    1
    10    11     9   ar
    11    12    11    1
    12    13    11   ar
    13    14    13    1
    14    15    13   ar
    15    16     4    1
    16    17    16    1
    17    18    16    1
    18    19     1    1
    19    20     3    1
    20    21    20    1
    21    22    21    1
    22    23    21    1
    23    24    21    1
    24    25    20    1
    25    26    25    1
    26    27    25    1
    27    28    25    1
    28    29    20    1
    29    30    29    1
    30    31    29    1
    31    32    29    1
    32    33     3    1
    33    34    33    1
    34    35    34    1
    35    36    34    1
    36    37    34    1
    37    38    33    1
    38    39    38    1
    39    40    38    1
    40    41    38    1
    41    42    33    1
    42    43    42    1
    43    44    42    1
    44    45    42    1
    45    46     4    1
    46    47    46    1
    47    48    47    1
    48    49    47    1
    49    50    47    1
    50    51    46    1
    51    52    51    1
    52    53    51    1
    53    54    51    1
    54    55    46    1
    55    56    55    1
    56    57    55    1
    57    58    55    1
    58    59     4    1
    59    60    59    1
    60    61    60    1
    61    62    60    1
    62    63    60    1
    63    64    59    1
    64    65    64    1
    65    66    64    1
    66    67    64    1
    67    68    59    1
    68    69    68    1
    69    70    68    1
    70    71    68    1
    71    72    73    3
    72    73     1    1
    73    74    75    1
    74    76     1    1
    75    77    74    2
    76     8    19   ar
    77    15    16    1
    78    15    19   ar
    79    74    76    1
@<TRIPOS>SUBSTRUCTURE
     1 RES1        1 GROUP             0 ****  ****    0  
@<TRIPOS>CRYSIN
   14.4922   11.7590   16.1358   90.0000   91.8769   90.0000    14     1
