@<TRIPOS>MOLECULE
YAKYEQ
    79    83     2     0     0
SMALL
NO_CHARGES
****
Generated from the CSD

@<TRIPOS>ATOM
     1 Fe1      2.1713   1.9858   3.8739   Fe        1 RES1   0.0000
     2 S1       0.6310   0.2045   4.0964   S.3       1 RES1   0.0000
     3 P1       3.4073   3.8850   3.6911   P.3       1 RES1   0.0000
     4 O1       1.1609   2.7316   2.3163   O.2       1 RES1   0.0000
     5 O2       0.6215   2.9874   6.1523   O.2       1 RES1   0.0000
     6 O3       4.1615   0.6980   5.6031   O.2       1 RES1   0.0000
     7 N1       2.7870   1.2608   2.1527   N.am      1 RES1   0.0000
     8 C1       3.5944   0.4150   1.4641   C.2       1 RES1   0.0000
     9 C2       3.5469   0.3324   0.1466   C.2       1 RES1   0.0000
    10 H1       4.1437  -0.2419  -0.3173   H         1 RES1   0.0000
    11 C3       2.6024   1.1041  -0.5706   C.2       1 RES1   0.0000
    12 H2       2.5479   1.0295  -1.5153   H         1 RES1   0.0000
    13 C4       1.7778   1.9494   0.0868   C.2       1 RES1   0.0000
    14 H3       1.1592   2.4936  -0.3856   H         1 RES1   0.0000
    15 C5       1.8596   2.0012   1.4627   C.2       1 RES1   0.0000
    16 C6       4.5654  -0.4213   2.3135   C.3       1 RES1   0.0000
    17 H4       5.1304  -0.9644   1.7259   H         1 RES1   0.0000
    18 H5       4.0558  -1.0078   2.9111   H         1 RES1   0.0000
    19 H6       5.1298   0.1760   2.8471   H         1 RES1   0.0000
    20 C7       4.2611   4.0550   2.0987   C.ar      1 RES1   0.0000
    21 C8       5.3032   3.2010   1.7401   C.ar      1 RES1   0.0000
    22 H7       5.6011   2.5475   2.3619   H         1 RES1   0.0000
    23 C9       5.9127   3.2804   0.5108   C.ar      1 RES1   0.0000
    24 H8       6.6375   2.7030   0.3031   H         1 RES1   0.0000
    25 C10      5.4683   4.2016  -0.4254   C.ar      1 RES1   0.0000
    26 H9       5.8702   4.2418  -1.2848   H         1 RES1   0.0000
    27 C11      4.4326   5.0655  -0.0953   C.ar      1 RES1   0.0000
    28 H10      4.1442   5.7144  -0.7256   H         1 RES1   0.0000
    29 C12      3.8279   4.9919   1.1212   C.ar      1 RES1   0.0000
    30 H11      3.1051   5.5753   1.3204   H         1 RES1   0.0000
    31 C13      2.4700   5.4505   3.8430   C.ar      1 RES1   0.0000
    32 C14      1.1078   5.4996   3.8231   C.ar      1 RES1   0.0000
    33 H12      0.6127   4.6941   3.7321   H         1 RES1   0.0000
    34 C15      0.4299   6.7121   3.9341   C.ar      1 RES1   0.0000
    35 H13     -0.5195   6.7243   3.9327   H         1 RES1   0.0000
    36 C16      1.1327   7.8909   4.0451   C.ar      1 RES1   0.0000
    37 H14      0.6729   8.7207   4.1105   H         1 RES1   0.0000
    38 C17      2.4888   7.8536   4.0621   C.ar      1 RES1   0.0000
    39 H15      2.9793   8.6612   4.1532   H         1 RES1   0.0000
    40 C18      3.1694   6.6458   3.9455   C.ar      1 RES1   0.0000
    41 H16      4.1194   6.6392   3.9369   H         1 RES1   0.0000
    42 C19      4.6855   3.9887   5.0197   C.ar      1 RES1   0.0000
    43 C20      6.0329   3.9748   4.7892   C.ar      1 RES1   0.0000
    44 H17      6.3651   3.9981   3.8999   H         1 RES1   0.0000
    45 C21      6.9266   3.9281   5.8706   C.ar      1 RES1   0.0000
    46 H18      7.8651   3.9277   5.7283   H         1 RES1   0.0000
    47 C22      6.3970   3.8830   7.1610   C.ar      1 RES1   0.0000
    48 H19      6.9856   3.8004   7.9009   H         1 RES1   0.0000
    49 C23      5.0776   3.9529   7.3773   C.ar      1 RES1   0.0000
    50 H20      4.7483   3.9785   8.2680   H         1 RES1   0.0000
    51 C24      4.2017   3.9852   6.3344   C.ar      1 RES1   0.0000
    52 H21      3.2675   4.0064   6.4980   H         1 RES1   0.0000
    53 C25      1.2356   2.6717   5.2602   C.1       1 RES1   0.0000
    54 C26      3.3747   1.1609   4.9486   C.1       1 RES1   0.0000
    55 C27      1.3071  -1.2736   3.4589   C.ar      1 RES1   0.0000
    56 C28      1.9461  -2.2047   4.3083   C.ar      1 RES1   0.0000
    57 C29      2.4347  -3.4066   3.7192   C.ar      1 RES1   0.0000
    58 H22      2.8799  -4.0479   4.2613   H         1 RES1   0.0000
    59 C30      2.2713  -3.6486   2.3861   C.ar      1 RES1   0.0000
    60 H23      2.5914  -4.4627   2.0161   H         1 RES1   0.0000
    61 C31      1.6478  -2.7288   1.5708   C.ar      1 RES1   0.0000
    62 H24      1.5327  -2.9116   0.6460   H         1 RES1   0.0000
    63 C32      1.1948  -1.5508   2.1015   C.ar      1 RES1   0.0000
    64 H25      0.7942  -0.9079   1.5281   H         1 RES1   0.0000
    65 C33      2.0711  -2.0176   5.8079   C.3       1 RES1   0.0000
    66 H26      2.0032  -1.0367   5.9901   H         1 RES1   0.0000
    67 C34      3.3994  -2.4889   6.3700   C.3       1 RES1   0.0000
    68 H27      3.4163  -3.4694   6.3899   H         1 RES1   0.0000
    69 H28      3.5102  -2.1427   7.2806   H         1 RES1   0.0000
    70 H29      4.1298  -2.1607   5.8051   H         1 RES1   0.0000
    71 C35      0.8814  -2.7033   6.5350   C.3       1 RES1   0.0000
    72 H30      0.0373  -2.3527   6.1821   H         1 RES1   0.0000
    73 H31      0.9358  -2.5189   7.4954   H         1 RES1   0.0000
    74 H32      0.9213  -3.6707   6.3856   H         1 RES1   0.0000
    75 Cl1      3.1009  -1.1378  -3.3920   Cl        2 RES2   0.0000
    76 Cl2      2.0649  -3.7475  -2.6735   Cl        2 RES2   0.0000
    77 C36      1.9444  -2.0254  -2.4003   C.3       2 RES2   0.0000
    78 H33      2.1151  -1.8326  -1.4442   H         2 RES2   0.0000
    79 H34      1.0276  -1.7219  -2.6151   H         2 RES2   0.0000
@<TRIPOS>BOND
     1     1     2    1
     2     2    55    1
     3     3     1    1
     4     4     1    1
     5     5    53    3
     6     6    54    3
     7     7     1    1
     8     8     7    1
     9     9     8    2
    10    10     9    1
    11    11     9    1
    12    12    11    1
    13    13    11    2
    14    14    13    1
    15    15     4    2
    16    16     8    1
    17    17    16    1
    18    18    16    1
    19    19    16    1
    20    20     3    1
    21    21    20   ar
    22    22    21    1
    23    23    21   ar
    24    24    23    1
    25    25    23   ar
    26    26    25    1
    27    27    25   ar
    28    28    27    1
    29    29    20   ar
    30    30    29    1
    31    31     3    1
    32    32    31   ar
    33    33    32    1
    34    34    32   ar
    35    35    34    1
    36    36    34   ar
    37    37    36    1
    38    38    36   ar
    39    39    38    1
    40    40    31   ar
    41    41    40    1
    42    42     3    1
    43    43    42   ar
    44    44    43    1
    45    45    43   ar
    46    46    45    1
    47    47    45   ar
    48    48    47    1
    49    49    47   ar
    50    50    49    1
    51    51    42   ar
    52    52    51    1
    53    53     1    1
    54    54     1    1
    55    55    56   ar
    56    56    57   ar
    57    57    58    1
    58    59    57   ar
    59    60    59    1
    60    61    59   ar
    61    62    61    1
    62    63    55   ar
    63    64    63    1
    64    65    56    1
    65    66    65    1
    66    67    65    1
    67    68    67    1
    68    69    67    1
    69    70    67    1
    70    71    65    1
    71    72    71    1
    72    73    71    1
    73    74    71    1
    74     7    15   am
    75    13    15    1
    76    27    29   ar
    77    38    40   ar
    78    49    51   ar
    79    61    63   ar
    80    75    77    1
    81    76    77    1
    82    77    78    1
    83    79    77    1
@<TRIPOS>SUBSTRUCTURE
     1 RES1        1 GROUP             0 ****  ****    0  
     2 RES2       75 GROUP             0 ****  ****    0  
@<TRIPOS>CRYSIN
   11.0759   11.5177   15.0820   71.0850   78.7390   66.1590     2     1
