@<TRIPOS>MOLECULE
YALPAF
   111   114     1     0     0
SMALL
NO_CHARGES
****
Generated from the CSD

@<TRIPOS>ATOM
     1 Fe1      0.0000   0.0000   0.0000   Fe        1 RES1   0.0000
     2 S1      -5.1672   6.6857   3.4047   S.3       1 RES1   0.0000
     3 P1       0.2795   1.5953  -1.5720   P.3       1 RES1   0.0000
     4 P2       1.8377   0.8709   0.9095   P.3       1 RES1   0.0000
     5 O1      -6.3533   4.8424   4.8265   O.2       1 RES1   0.0000
     6 C1      -1.1632   1.2156   0.9379   C.1       1 RES1   0.0000
     7 C2      -1.8848   2.0468   1.4456   C.1       1 RES1   0.0000
     8 C3      -2.7018   3.1089   1.9584   C.ar      1 RES1   0.0000
     9 C4      -2.3889   3.7677   3.1528   C.ar      1 RES1   0.0000
    10 H1      -1.6572   3.4851   3.6533   H         1 RES1   0.0000
    11 C5      -3.1505   4.8333   3.6033   C.ar      1 RES1   0.0000
    12 H2      -2.9163   5.2668   4.3927   H         1 RES1   0.0000
    13 C6      -4.2536   5.2564   2.8900   C.ar      1 RES1   0.0000
    14 C7      -4.5997   4.6086   1.7189   C.ar      1 RES1   0.0000
    15 H3      -5.3503   4.8799   1.2407   H         1 RES1   0.0000
    16 C8      -3.8262   3.5554   1.2568   C.ar      1 RES1   0.0000
    17 H4      -4.0604   3.1343   0.4616   H         1 RES1   0.0000
    18 C9      -6.3143   6.0024   4.5734   C.2       1 RES1   0.0000
    19 C10     -7.2024   7.0435   5.1789   C.3       1 RES1   0.0000
    20 H5      -6.6700   7.6665   5.6794   H         1 RES1   0.0000
    21 H6      -7.8359   6.6234   5.7629   H         1 RES1   0.0000
    22 H7      -7.6700   7.5098   4.4825   H         1 RES1   0.0000
    23 C11      1.8375   2.5223  -1.2474   C.3       1 RES1   0.0000
    24 H8       2.2404   2.7927  -2.0867   H         1 RES1   0.0000
    25 H9       1.6431   3.3203  -0.7311   H         1 RES1   0.0000
    26 C12      2.7972   1.6310  -0.4775   C.3       1 RES1   0.0000
    27 H10      3.5365   2.1545  -0.1295   H         1 RES1   0.0000
    28 H11      3.1549   0.9406  -1.0569   H         1 RES1   0.0000
    29 C13     -0.9434   2.9723  -1.6660   C.3       1 RES1   0.0000
    30 H12     -1.7511   2.6259  -2.0783   H         1 RES1   0.0000
    31 H13     -1.1729   3.2298  -0.7582   H         1 RES1   0.0000
    32 C14     -0.5385   4.2277  -2.4190   C.3       1 RES1   0.0000
    33 H14      0.1850   4.6578  -1.9572   H         1 RES1   0.0000
    34 H15     -1.2878   4.8266  -2.4689   H         1 RES1   0.0000
    35 H16     -0.2567   3.9915  -3.3065   H         1 RES1   0.0000
    36 C15      0.4252   1.1838  -3.3675   C.3       1 RES1   0.0000
    37 H17     -0.3022   0.5839  -3.5948   H         1 RES1   0.0000
    38 H18      0.2886   2.0018  -3.8705   H         1 RES1   0.0000
    39 C16      1.7071   0.5557  -3.8486   C.3       1 RES1   0.0000
    40 H19      1.8518  -0.2723  -3.3859   H         1 RES1   0.0000
    41 H20      2.4407   1.1506  -3.6742   H         1 RES1   0.0000
    42 H21      1.6480   0.3889  -4.7916   H         1 RES1   0.0000
    43 C17      3.0914  -0.1865   1.7289   C.3       1 RES1   0.0000
    44 H22      2.7124  -0.5165   2.5587   H         1 RES1   0.0000
    45 H23      3.2562  -0.9557   1.1614   H         1 RES1   0.0000
    46 C18      4.4301   0.4633   2.0457   C.3       1 RES1   0.0000
    47 H24      4.8900   0.6643   1.2282   H         1 RES1   0.0000
    48 H25      4.9623  -0.1387   2.5713   H         1 RES1   0.0000
    49 H26      4.2838   1.2742   2.5379   H         1 RES1   0.0000
    50 C19      1.7156   2.3294   2.0249   C.3       1 RES1   0.0000
    51 H27      2.5727   2.7846   2.0219   H         1 RES1   0.0000
    52 H28      1.0623   2.9414   1.6522   H         1 RES1   0.0000
    53 C20      1.3355   2.0541   3.4603   C.3       1 RES1   0.0000
    54 H29      0.4445   1.6983   3.4924   H         1 RES1   0.0000
    55 H30      1.3724   2.8700   3.9645   H         1 RES1   0.0000
    56 H31      1.9473   1.4169   3.8371   H         1 RES1   0.0000
    57 S1B      5.1672  -6.6857  -3.4047   S.3       1 RES1   0.0000
    58 P1B     -0.2795  -1.5953   1.5720   P.3       1 RES1   0.0000
    59 P2B     -1.8377  -0.8709  -0.9095   P.3       1 RES1   0.0000
    60 O1B      6.3533  -4.8424  -4.8265   O.2       1 RES1   0.0000
    61 C1B      1.1632  -1.2156  -0.9379   C.1       1 RES1   0.0000
    62 C2B      1.8848  -2.0468  -1.4456   C.1       1 RES1   0.0000
    63 C3B      2.7018  -3.1089  -1.9584   C.ar      1 RES1   0.0000
    64 C4B      2.3889  -3.7677  -3.1528   C.ar      1 RES1   0.0000
    65 H1B      1.6572  -3.4851  -3.6533   H         1 RES1   0.0000
    66 C5B      3.1505  -4.8333  -3.6033   C.ar      1 RES1   0.0000
    67 H2B      2.9163  -5.2668  -4.3927   H         1 RES1   0.0000
    68 C6B      4.2536  -5.2564  -2.8900   C.ar      1 RES1   0.0000
    69 C7B      4.5997  -4.6086  -1.7189   C.ar      1 RES1   0.0000
    70 H3B      5.3503  -4.8799  -1.2407   H         1 RES1   0.0000
    71 C8B      3.8262  -3.5554  -1.2568   C.ar      1 RES1   0.0000
    72 H4B      4.0604  -3.1343  -0.4616   H         1 RES1   0.0000
    73 C9B      6.3143  -6.0024  -4.5734   C.2       1 RES1   0.0000
    74 C10B     7.2024  -7.0435  -5.1789   C.3       1 RES1   0.0000
    75 H5B      6.6700  -7.6665  -5.6794   H         1 RES1   0.0000
    76 H6B      7.8359  -6.6234  -5.7629   H         1 RES1   0.0000
    77 H7B      7.6700  -7.5098  -4.4825   H         1 RES1   0.0000
    78 C11B    -1.8375  -2.5223   1.2474   C.3       1 RES1   0.0000
    79 H8B     -2.2404  -2.7927   2.0867   H         1 RES1   0.0000
    80 H9B     -1.6431  -3.3203   0.7311   H         1 RES1   0.0000
    81 C12B    -2.7972  -1.6310   0.4775   C.3       1 RES1   0.0000
    82 H10B    -3.5365  -2.1545   0.1295   H         1 RES1   0.0000
    83 H11B    -3.1549  -0.9406   1.0569   H         1 RES1   0.0000
    84 C13B     0.9434  -2.9723   1.6660   C.3       1 RES1   0.0000
    85 H12B     1.7511  -2.6259   2.0783   H         1 RES1   0.0000
    86 H13B     1.1729  -3.2298   0.7582   H         1 RES1   0.0000
    87 C14B     0.5385  -4.2277   2.4190   C.3       1 RES1   0.0000
    88 H14B    -0.1850  -4.6578   1.9572   H         1 RES1   0.0000
    89 H15B     1.2878  -4.8266   2.4689   H         1 RES1   0.0000
    90 H16B     0.2567  -3.9915   3.3065   H         1 RES1   0.0000
    91 C15B    -0.4252  -1.1838   3.3675   C.3       1 RES1   0.0000
    92 H17B     0.3022  -0.5839   3.5948   H         1 RES1   0.0000
    93 H18B    -0.2886  -2.0018   3.8705   H         1 RES1   0.0000
    94 C16B    -1.7071  -0.5557   3.8486   C.3       1 RES1   0.0000
    95 H19B    -1.8518   0.2723   3.3859   H         1 RES1   0.0000
    96 H20B    -2.4407  -1.1506   3.6742   H         1 RES1   0.0000
    97 H21B    -1.6480  -0.3889   4.7916   H         1 RES1   0.0000
    98 C17B    -3.0914   0.1865  -1.7289   C.3       1 RES1   0.0000
    99 H22B    -2.7124   0.5165  -2.5587   H         1 RES1   0.0000
   100 H23B    -3.2562   0.9557  -1.1614   H         1 RES1   0.0000
   101 C18B    -4.4301  -0.4633  -2.0457   C.3       1 RES1   0.0000
   102 H24B    -4.8900  -0.6643  -1.2282   H         1 RES1   0.0000
   103 H25B    -4.9623   0.1387  -2.5713   H         1 RES1   0.0000
   104 H26B    -4.2838  -1.2742  -2.5379   H         1 RES1   0.0000
   105 C19B    -1.7156  -2.3294  -2.0249   C.3       1 RES1   0.0000
   106 H27B    -2.5727  -2.7846  -2.0219   H         1 RES1   0.0000
   107 H28B    -1.0623  -2.9414  -1.6522   H         1 RES1   0.0000
   108 C20B    -1.3355  -2.0541  -3.4603   C.3       1 RES1   0.0000
   109 H29B    -0.4445  -1.6983  -3.4924   H         1 RES1   0.0000
   110 H30B    -1.3724  -2.8700  -3.9645   H         1 RES1   0.0000
   111 H31B    -1.9473  -1.4169  -3.8371   H         1 RES1   0.0000
@<TRIPOS>BOND
     1     1     3    1
     2     2    13    1
     3     3    23    1
     4     4     1    1
     5     5    18    2
     6     6     1    1
     7     7     6    3
     8     8     7    1
     9     9     8   ar
    10    10     9    1
    11    11     9   ar
    12    12    11    1
    13    13    11   ar
    14    14    13   ar
    15    15    14    1
    16    16     8   ar
    17    17    16    1
    18    18     2    1
    19    19    18    1
    20    20    19    1
    21    21    19    1
    22    22    19    1
    23    23    24    1
    24    25    23    1
    25    26     4    1
    26    27    26    1
    27    28    26    1
    28    29     3    1
    29    30    29    1
    30    31    29    1
    31    32    29    1
    32    33    32    1
    33    34    32    1
    34    35    32    1
    35    36     3    1
    36    37    36    1
    37    38    36    1
    38    39    36    1
    39    40    39    1
    40    41    39    1
    41    42    39    1
    42    43     4    1
    43    44    43    1
    44    45    43    1
    45    46    43    1
    46    47    46    1
    47    48    46    1
    48    49    46    1
    49    50     4    1
    50    51    50    1
    51    52    50    1
    52    53    50    1
    53    54    53    1
    54    55    53    1
    55    56    53    1
    56    57    68    1
    57    58     1    1
    58    59     1    1
    59    60    73    2
    60    61     1    1
    61    62    61    3
    62    63    62    1
    63    64    63   ar
    64    65    64    1
    65    66    64   ar
    66    67    66    1
    67    68    66   ar
    68    69    68   ar
    69    70    69    1
    70    71    63   ar
    71    72    71    1
    72    73    57    1
    73    74    73    1
    74    75    74    1
    75    76    74    1
    76    77    74    1
    77    78    58    1
    78    79    78    1
    79    80    78    1
    80    81    59    1
    81    82    81    1
    82    83    81    1
    83    84    58    1
    84    85    84    1
    85    86    84    1
    86    87    84    1
    87    88    87    1
    88    89    87    1
    89    90    87    1
    90    91    58    1
    91    92    91    1
    92    93    91    1
    93    94    91    1
    94    95    94    1
    95    96    94    1
    96    97    94    1
    97    98    59    1
    98    99    98    1
    99   100    98    1
   100   101    98    1
   101   102   101    1
   102   103   101    1
   103   104   101    1
   104   105    59    1
   105   106   105    1
   106   107   105    1
   107   108   105    1
   108   109   108    1
   109   110   108    1
   110   111   108    1
   111    14    16   ar
   112    23    26    1
   113    69    71   ar
   114    78    81    1
@<TRIPOS>SUBSTRUCTURE
     1 RES1        1 GROUP             0 ****  ****    0  
@<TRIPOS>CRYSIN
    9.9602   10.0492   21.2012   90.0000   99.8650   90.0000    14     1
