@<TRIPOS>MOLECULE
YAMXAL
    83    88     5     0     0
SMALL
USER_CHARGES
****
Generated from the CSD

@<TRIPOS>ATOM
     1 Fe1      8.9930   0.9211  23.1846   Fe        1 RES1   2.0000
     2 N1      10.0146   2.6211  23.3892   N.ar      1 RES1   0.0000
     3 N2      10.6812  -0.1015  23.5228   N.ar      1 RES1   0.0000
     4 N3       8.0174  -0.7920  22.8955   N.ar      1 RES1   0.0000
     5 N4       8.7902   1.4021  21.2616   N.ar      1 RES1   0.0000
     6 N5       7.3641   2.0927  23.3401   N.3       1 RES1   0.0000
     7 N6       8.7663   0.5337  25.1730   N.3       1 RES1   0.0000
     8 C1      11.3422   2.8161  23.2446   C.ar      1 RES1   0.0000
     9 C2      11.9056   4.0522  23.2419   C.ar      1 RES1   0.0000
    10 C3      11.1088   5.1539  23.2419   C.ar      1 RES1   0.0000
    11 C4       9.7553   5.0155  23.3210   C.ar      1 RES1   0.0000
    12 C5       9.2274   3.7360  23.3346   C.ar      1 RES1   0.0000
    13 C6       7.7582   3.5409  23.3673   C.3       1 RES1   0.0000
    14 C7      11.4799  -0.7591  22.6827   C.ar      1 RES1   0.0000
    15 C8      12.7195  -1.3125  23.0837   C.ar      1 RES1   0.0000
    16 C9      13.0428  -1.2453  24.3302   C.ar      1 RES1   0.0000
    17 C10     12.2193  -0.6984  25.2821   C.ar      1 RES1   0.0000
    18 C11     11.0275  -0.0988  24.8212   C.ar      1 RES1   0.0000
    19 C12     10.0366   0.6431  25.7485   C.3       1 RES1   0.0000
    20 C13      7.5717  -1.3099  21.7417   C.ar      1 RES1   0.0000
    21 C14      6.9193  -2.5381  21.6953   C.ar      1 RES1   0.0000
    22 C15      6.5444  -3.1746  22.8955   C.ar      1 RES1   0.0000
    23 C16      6.9652  -2.6514  24.0874   C.ar      1 RES1   0.0000
    24 C17      7.6960  -1.4430  24.0438   C.ar      1 RES1   0.0000
    25 C18      8.2469  -0.8302  25.3230   C.3       1 RES1   0.0000
    26 C19      9.7333   1.3547  20.2497   C.ar      1 RES1   0.0000
    27 C20      9.4540   1.8028  19.0059   C.ar      1 RES1   0.0000
    28 C21      8.1752   2.2139  18.7086   C.ar      1 RES1   0.0000
    29 C22      7.1881   2.2508  19.6715   C.ar      1 RES1   0.0000
    30 C23      7.5315   1.8199  20.9507   C.ar      1 RES1   0.0000
    31 C24      6.5779   1.7843  22.0472   C.3       1 RES1   0.0000
    32 C25      6.6525   1.6565  24.5457   C.3       1 RES1   0.0000
    33 C26      7.7639   1.5906  25.6885   C.3       1 RES1   0.0000
    34 C27      7.2512   1.3784  27.0660   C.3       1 RES1   0.0000
    35 C28      6.1608   2.3944  27.4124   C.3       1 RES1   0.0000
    36 C29      4.9623   2.2851  26.3950   C.3       1 RES1   0.0000
    37 C30      5.4693   2.5565  24.9712   C.3       1 RES1   0.0000
    38 H1      11.8941   2.0413  23.1219   H         1 RES1   0.0000
    39 H2      12.8621   4.1379  23.2610   H         1 RES1   0.0000
    40 H3      11.4943   6.0316  23.2010   H         1 RES1   0.0000
    41 H4       9.1661   5.6415  23.3537   H         1 RES1   0.0000
    42 H5       7.3861   3.8388  24.1556   H         1 RES1   0.0000
    43 H6       7.3880   3.9837  22.6009   H         1 RES1   0.0000
    44 H7      11.2245  -0.8381  21.7608   H         1 RES1   0.0000
    45 H8      13.2915  -1.7632  22.4591   H         1 RES1   0.0000
    46 H9      12.4431  -0.6984  26.2150   H         1 RES1   0.0000
    47 H10     10.0643   0.2148  26.6077   H         1 RES1   0.0000
    48 H11     10.2986   1.5616  25.8467   H         1 RES1   0.0000
    49 H12      7.7333  -0.8539  20.9125   H         1 RES1   0.0000
    50 H13      6.6725  -2.9361  20.8580   H         1 RES1   0.0000
    51 H14      6.0279  -3.9837  22.8873   H         1 RES1   0.0000
    52 H15      6.7443  -3.0678  24.9248   H         1 RES1   0.0000
    53 H16      7.5583  -0.8513  25.9940   H         1 RES1   0.0000
    54 H17      8.9643  -1.3903  25.6285   H         1 RES1   0.0000
    55 H18     10.5999   1.0173  20.4897   H         1 RES1   0.0000
    56 H19     10.1408   1.8818  18.3404   H         1 RES1   0.0000
    57 H20      7.8921   2.3760  17.8058   H         1 RES1   0.0000
    58 H21      6.3158   2.6172  19.5078   H         1 RES1   0.0000
    59 H22      5.8853   2.4366  21.9190   H         1 RES1   0.0000
    60 H23      6.1809   0.9119  22.0854   H         1 RES1   0.0000
    61 H24      6.3196   0.7696  24.3847   H         1 RES1   0.0000
    62 H25      8.2278   2.4313  25.6885   H         1 RES1   0.0000
    63 H26      7.9925   1.4549  27.6715   H         1 RES1   0.0000
    64 H27      6.8868   0.4942  27.1505   H         1 RES1   0.0000
    65 H28      6.5300   3.2787  27.3578   H         1 RES1   0.0000
    66 H29      5.8595   2.2468  28.3125   H         1 RES1   0.0000
    67 H30      4.2689   2.9031  26.6377   H         1 RES1   0.0000
    68 H31      4.6017   1.3956  26.4414   H         1 RES1   0.0000
    69 H32      4.7481   2.4129  24.3520   H         1 RES1   0.0000
    70 H33      5.7342   3.4764  24.9084   H         1 RES1   0.0000
    71 Cl1      5.5726   6.3571  21.5317   Cl        2 RES2   0.0000
    72 O1       5.3918   5.0788  21.0925   O.2       2 RES2   0.0000
    73 O2       5.4549   7.2624  20.4788   O.2       2 RES2   0.0000
    74 O3       4.6256   6.6733  22.4863   O.2       2 RES2   0.0000
    75 O4       6.8332   6.5060  22.0772   O.3       2 RES2  -1.0000
    76 Cl2      5.1536  -1.9859  28.3780   Cl        3 RES3   0.0000
    77 O5       3.7629  -1.9886  28.4789   O.2       3 RES3   0.0000
    78 O6       5.6261  -0.9198  29.1362   O.2       3 RES3   0.0000
    79 O7       5.6309  -3.1561  28.8880   O.2       3 RES3   0.0000
    80 O8       5.5047  -1.7935  27.0714   O.3       3 RES3  -1.0000
    81 O9       7.2340   5.7865  25.8495   O.3       4 RES4   0.0000
    82 O10      9.2934  -1.7553  28.6998   O.3       5 RES5   0.0000
    83 C31      9.5296  -0.2122  29.2753   C.3       5 RES5   0.0000
@<TRIPOS>BOND
     1     1     2    1
     2     2     8   ar
     3     3     1    1
     4     4     1    1
     5     5     1    1
     6     6     1    1
     7     7     1    1
     8     8     9   ar
     9     9    10   ar
    10    10    11   ar
    11    11    12   ar
    12    12     2   ar
    13    13     6    1
    14    14     3   ar
    15    15    14   ar
    16    16    15   ar
    17    17    16   ar
    18    18     3   ar
    19    19     7    1
    20    20     4   ar
    21    21    20   ar
    22    22    21   ar
    23    23    22   ar
    24    24     4   ar
    25    25     7    1
    26    26     5   ar
    27    27    26   ar
    28    28    27   ar
    29    29    28   ar
    30    30     5   ar
    31    31     6    1
    32    32     6    1
    33    33     7    1
    34    34    33    1
    35    35    34    1
    36    36    35    1
    37    37    32    1
    38    38     8    1
    39    39     9    1
    40    40    10    1
    41    41    11    1
    42    42    13    1
    43    43    13    1
    44    44    14    1
    45    45    15    1
    46    46    17    1
    47    47    19    1
    48    48    19    1
    49    49    20    1
    50    50    21    1
    51    51    22    1
    52    52    23    1
    53    53    25    1
    54    54    25    1
    55    55    26    1
    56    56    27    1
    57    57    28    1
    58    58    29    1
    59    59    31    1
    60    60    31    1
    61    61    32    1
    62    62    33    1
    63    63    34    1
    64    64    34    1
    65    65    35    1
    66    66    35    1
    67    67    36    1
    68    68    36    1
    69    69    37    1
    70    70    37    1
    71    12    13    1
    72    17    18   ar
    73    18    19    1
    74    23    24   ar
    75    24    25    1
    76    29    30   ar
    77    30    31    1
    78    32    33    1
    79    36    37    1
    80    71    72    2
    81    73    71    2
    82    74    71    2
    83    75    71    1
    84    76    77    2
    85    78    76    2
    86    79    76    2
    87    80    76    1
    88    82    83    1
@<TRIPOS>SUBSTRUCTURE
     1 RES1        1 GROUP             0 ****  ****    0  
     2 RES2       71 GROUP             0 ****  ****    0  
     3 RES3       76 GROUP             0 ****  ****    0  
     4 RES4       81 GROUP             0 ****  ****    0  
     5 RES5       82 GROUP             0 ****  ****    0  
@<TRIPOS>CRYSIN
    9.5650   13.1780   27.2760   90.0000   90.0000   90.0000    19     1
