@<TRIPOS>MOLECULE
YAWWAY
    74    72    11     0     0
SMALL
USER_CHARGES
****
Generated from the CSD

@<TRIPOS>ATOM
     1 Fe1     13.5938   4.1030  16.9120   Fe        1 RES1   3.0000
     2 N1      13.4157   2.4359  17.9641   N.ar      1 RES1   0.0000
     3 N2      12.3034   3.1664  15.7316   N.ar      1 RES1   0.0000
     4 N3      12.1317   4.9748  17.8945   N.ar      1 RES1   0.0000
     5 N4      13.5052   5.7780  15.8573   N.ar      1 RES1   0.0000
     6 N5      15.0142   4.8656  18.0658   N.ar      1 RES1   0.0000
     7 N6      15.1671   3.4153  15.9367   N.ar      1 RES1   0.0000
     8 C1      13.9715   2.1745  19.1533   C.ar      1 RES1   0.0000
     9 H1      14.5817   2.7768  19.5151   H         1 RES1   0.0000
    10 C2      13.6570   1.0267  19.8517   C.ar      1 RES1   0.0000
    11 H2      14.0454   0.8651  20.6811   H         1 RES1   0.0000
    12 C3      12.7687   0.1219  19.3186   C.ar      1 RES1   0.0000
    13 H3      12.5538  -0.6526  19.7843   H         1 RES1   0.0000
    14 C4      12.2159   0.3669  18.1245   C.ar      1 RES1   0.0000
    15 H4      11.6334  -0.2491  17.7438   H         1 RES1   0.0000
    16 C5      12.5210   1.5573  17.4516   C.ar      1 RES1   0.0000
    17 C6      11.9208   1.9583  16.1650   C.ar      1 RES1   0.0000
    18 C7      11.0558   1.1344  15.4332   C.ar      1 RES1   0.0000
    19 H5      10.7939   0.3087  15.7723   H         1 RES1   0.0000
    20 C8      10.6003   1.5579  14.2155   C.ar      1 RES1   0.0000
    21 H6      10.0412   1.0208  13.7028   H         1 RES1   0.0000
    22 C9      10.9952   2.8161  13.7591   C.ar      1 RES1   0.0000
    23 H7      10.6935   3.1370  12.9396   H         1 RES1   0.0000
    24 C10     11.8413   3.5793  14.5442   C.ar      1 RES1   0.0000
    25 H8      12.1003   4.4164  14.2324   H         1 RES1   0.0000
    26 C11     11.4848   4.5548  18.9962   C.ar      1 RES1   0.0000
    27 H9      11.6898   3.7124  19.3326   H         1 RES1   0.0000
    28 C12     10.5306   5.3103  19.6553   C.ar      1 RES1   0.0000
    29 H10     10.1260   4.9851  20.4274   H         1 RES1   0.0000
    30 C13     10.1968   6.5068  19.1739   C.ar      1 RES1   0.0000
    31 H11      9.5479   7.0173  19.6019   H         1 RES1   0.0000
    32 C14     10.8102   6.9807  18.0460   C.ar      1 RES1   0.0000
    33 H12     10.5789   7.8120  17.6971   H         1 RES1   0.0000
    34 C15     11.7811   6.2068  17.4285   C.ar      1 RES1   0.0000
    35 C16     12.5498   6.6375  16.2496   C.ar      1 RES1   0.0000
    36 C17     12.2840   7.7759  15.5555   C.ar      1 RES1   0.0000
    37 H13     11.6047   8.3400  15.8479   H         1 RES1   0.0000
    38 C18     13.0068   8.1143  14.4176   C.ar      1 RES1   0.0000
    39 H14     12.8283   8.8924  13.9409   H         1 RES1   0.0000
    40 C19     14.0084   7.2361  14.0270   C.ar      1 RES1   0.0000
    41 H15     14.5236   7.4126  13.2734   H         1 RES1   0.0000
    42 C20     14.2265   6.0961  14.7736   C.ar      1 RES1   0.0000
    43 H16     14.9076   5.5199  14.5128   H         1 RES1   0.0000
    44 C21     14.8774   5.5396  19.2213   C.ar      1 RES1   0.0000
    45 H17     14.0195   5.7189  19.5307   H         1 RES1   0.0000
    46 C22     15.9236   5.9674  19.9517   C.ar      1 RES1   0.0000
    47 H18     15.7685   6.4188  20.7501   H         1 RES1   0.0000
    48 C23     17.1876   5.7558  19.5498   C.ar      1 RES1   0.0000
    49 H19     17.9075   6.0668  20.0491   H         1 RES1   0.0000
    50 C24     17.3909   5.0519  18.3531   C.ar      1 RES1   0.0000
    51 H20     18.2499   4.8808  18.0420   H         1 RES1   0.0000
    52 C25     16.2889   4.6198  17.6479   C.ar      1 RES1   0.0000
    53 C26     16.3622   3.8509  16.4142   C.ar      1 RES1   0.0000
    54 C27     17.5621   3.5456  15.7531   C.ar      1 RES1   0.0000
    55 H21     18.3705   3.8315  16.1127   H         1 RES1   0.0000
    56 C28     17.5535   2.8412  14.6025   C.ar      1 RES1   0.0000
    57 H22     18.3471   2.6821  14.1434   H         1 RES1   0.0000
    58 C29     16.3602   2.3594  14.1114   C.ar      1 RES1   0.0000
    59 H23     16.3331   1.8481  13.3357   H         1 RES1   0.0000
    60 C30     15.1824   2.6679  14.8234   C.ar      1 RES1   0.0000
    61 H24     14.3749   2.3355  14.5039   H         1 RES1   0.0000
    62 S1      21.4580   4.1432  16.6891   S.o       2 RES2   0.0000
    63 O1      20.4512   4.8077  17.0963   O.3       2 RES2  -1.0000
    64 O2      21.4580   2.9853  16.6891   O.2       2 RES2   0.0000
    65 O1A     22.4647   4.8077  16.2818   O.3       2 RES2  -1.0000
    66 O3      10.7505   9.0224  11.9643   O.3       3 RES3   0.0000
    67 O4      10.1697   7.7727  22.6139   O.3       4 RES4  -1.0000
    68 O5      10.9587   2.8418   9.2290   O.3       5 RES5   0.0000
    69 O6      11.8179   0.1449  10.8635   O.3       6 RES6   0.0000
    70 O7      10.9540   2.6618  22.0000   O.3       7 RES7   0.0000
    71 O8      16.5419   1.8330  10.4062   O.3       8 RES8   0.0000
    72 O9      18.0848   0.0644  11.7102   O.3       9 RES9   0.0000
    73 O10     13.9999   2.2503  11.3352   O.3      10 RES10   0.0000
    74 O11     13.4865   4.0463  22.4150   O.3      11 RES11   0.0000
@<TRIPOS>BOND
     1     1     2    1
     2     2     8   ar
     3     3     1    1
     4     4     1    1
     5     5     1    1
     6     6     1    1
     7     7     1    1
     8     8     9    1
     9    10     8   ar
    10    11    10    1
    11    12    10   ar
    12    13    12    1
    13    14    12   ar
    14    15    14    1
    15    16     2   ar
    16    17     3   ar
    17    18    17   ar
    18    19    18    1
    19    20    18   ar
    20    21    20    1
    21    22    20   ar
    22    23    22    1
    23    24     3   ar
    24    25    24    1
    25    26     4   ar
    26    27    26    1
    27    28    26   ar
    28    29    28    1
    29    30    28   ar
    30    31    30    1
    31    32    30   ar
    32    33    32    1
    33    34     4   ar
    34    35     5   ar
    35    36    35   ar
    36    37    36    1
    37    38    36   ar
    38    39    38    1
    39    40    38   ar
    40    41    40    1
    41    42     5   ar
    42    43    42    1
    43    44     6   ar
    44    45    44    1
    45    46    44   ar
    46    47    46    1
    47    48    46   ar
    48    49    48    1
    49    50    48   ar
    50    51    50    1
    51    52     6   ar
    52    53     7   ar
    53    54    53   ar
    54    55    54    1
    55    56    54   ar
    56    57    56    1
    57    58    56   ar
    58    59    58    1
    59    60     7   ar
    60    61    60    1
    61    14    16   ar
    62    16    17    1
    63    22    24   ar
    64    32    34   ar
    65    34    35    1
    66    40    42   ar
    67    50    52   ar
    68    52    53    1
    69    58    60   ar
    70    62    63    1
    71    64    62    2
    72    65    62    1
@<TRIPOS>SUBSTRUCTURE
     1 RES1        1 GROUP             0 ****  ****    0  
     2 RES2       62 GROUP             0 ****  ****    0  
     3 RES3       66 GROUP             0 ****  ****    0  
     4 RES4       67 GROUP             0 ****  ****    0  
     5 RES5       68 GROUP             0 ****  ****    0  
     6 RES6       69 GROUP             0 ****  ****    0  
     7 RES7       70 GROUP             0 ****  ****    0  
     8 RES8       71 GROUP             0 ****  ****    0  
     9 RES9       72 GROUP             0 ****  ****    0  
    10 RES10      73 GROUP             0 ****  ****    0  
    11 RES11      74 GROUP             0 ****  ****    0  
@<TRIPOS>CRYSIN
   23.7331   13.5390   22.4579   90.0000   97.7630   90.0000    15     1
