@<TRIPOS>MOLECULE
YAXTUQ
    75    79     6     0     0
SMALL
USER_CHARGES
****
Generated from the CSD

@<TRIPOS>ATOM
     1 I1      11.7940  -0.3567   6.4975   I         1 RES1   0.0000
     2 I2      15.8611  11.5277   0.8257   I         1 RES1   0.0000
     3 Fe1     10.5391   6.3124   2.8495   Fe        1 RES1   1.0000
     4 O1      11.4989   4.6443   2.8207   O.3       1 RES1   0.0000
     5 O2      12.0001   7.4116   3.4201   O.3       1 RES1   0.0000
     6 N1       9.6147   5.6647   4.6559   N.2       1 RES1   0.0000
     7 N2       9.2037   7.9373   3.3473   N.ar      1 RES1   0.0000
     8 N3      10.9321   6.9859   0.8757   N.2       1 RES1   0.0000
     9 N4       8.9798   5.4217   1.7106   N.ar      1 RES1   0.0000
    10 C1      11.5126   3.5951   3.6001   C.ar      1 RES1   0.0000
    11 C2      12.3186   2.4986   3.2721   C.ar      1 RES1   0.0000
    12 H1      12.8313   2.5214   2.4728   H         1 RES1   0.0000
    13 C3      12.3834   1.3878   4.0811   C.ar      1 RES1   0.0000
    14 H2      12.9545   0.6656   3.8443   H         1 RES1   0.0000
    15 C4      11.6268   1.3117   5.2306   C.ar      1 RES1   0.0000
    16 C5      10.8391   2.3643   5.6117   C.ar      1 RES1   0.0000
    17 H3      10.3545   2.3222   6.4282   H         1 RES1   0.0000
    18 C6      10.7438   3.5057   4.8026   C.ar      1 RES1   0.0000
    19 C7       9.8791   4.5464   5.2565   C.2       1 RES1   0.0000
    20 H4       9.4498   4.4054   6.0927   H         1 RES1   0.0000
    21 C8       8.6259   6.5357   5.1936   C.ar      1 RES1   0.0000
    22 C9       7.8488   6.2977   6.3061   C.ar      1 RES1   0.0000
    23 H5       7.9370   5.4781   6.7772   H         1 RES1   0.0000
    24 C10      6.9234   7.2657   6.7476   C.ar      1 RES1   0.0000
    25 H6       6.3881   7.0840   7.5110   H         1 RES1   0.0000
    26 C11      6.7848   8.4537   6.1026   C.ar      1 RES1   0.0000
    27 H7       6.1757   9.1036   6.4331   H         1 RES1   0.0000
    28 C12      7.5390   8.7264   4.9494   C.ar      1 RES1   0.0000
    29 C13      7.4618   9.9333   4.1835   C.ar      1 RES1   0.0000
    30 H8       6.8725  10.6266   4.4573   H         1 RES1   0.0000
    31 C14      8.2095  10.0946   3.0883   C.ar      1 RES1   0.0000
    32 H9       8.1550  10.8982   2.5838   H         1 RES1   0.0000
    33 C15      9.0766   9.0619   2.6887   C.ar      1 RES1   0.0000
    34 H10      9.5966   9.1861   1.9030   H         1 RES1   0.0000
    35 C16      8.4650   7.7580   4.4709   C.ar      1 RES1   0.0000
    36 C17     12.7424   8.3282   2.8305   C.ar      1 RES1   0.0000
    37 C18     13.6354   9.0936   3.6112   C.ar      1 RES1   0.0000
    38 H11     13.6518   8.9737   4.5535   H         1 RES1   0.0000
    39 C19     14.4743  10.0025   3.0377   C.ar      1 RES1   0.0000
    40 H12     15.0591  10.5090   3.5866   H         1 RES1   0.0000
    41 C20     14.4855  10.1999   1.6613   C.ar      1 RES1   0.0000
    42 C21     13.6045   9.4756   0.8794   C.ar      1 RES1   0.0000
    43 H13     13.5978   9.6137  -0.0604   H         1 RES1   0.0000
    44 C22     12.7165   8.5374   1.4393   C.ar      1 RES1   0.0000
    45 C23     11.8321   7.8452   0.5390   C.2       1 RES1   0.0000
    46 H14     11.9181   8.0382  -0.3873   H         1 RES1   0.0000
    47 C24     10.1205   6.4134  -0.1332   C.ar      1 RES1   0.0000
    48 C25     10.2552   6.5951  -1.4701   C.ar      1 RES1   0.0000
    49 H15     10.9343   7.1677  -1.8081   H         1 RES1   0.0000
    50 C26      9.3658   5.9171  -2.3717   C.ar      1 RES1   0.0000
    51 H16      9.4632   6.0549  -3.3066   H         1 RES1   0.0000
    52 C27      8.3852   5.0830  -1.9252   C.ar      1 RES1   0.0000
    53 H17      7.8194   4.6348  -2.5444   H         1 RES1   0.0000
    54 C28      8.2191   4.8943  -0.5735   C.ar      1 RES1   0.0000
    55 C29      7.2141   4.0560   0.0160   C.ar      1 RES1   0.0000
    56 H18      6.6041   3.5904  -0.5427   H         1 RES1   0.0000
    57 C30      7.1261   3.9227   1.3604   C.ar      1 RES1   0.0000
    58 H19      6.4646   3.3576   1.7427   H         1 RES1   0.0000
    59 C31      8.0183   4.6247   2.1830   C.ar      1 RES1   0.0000
    60 H20      7.9340   4.5275   3.1241   H         1 RES1   0.0000
    61 C32      9.0889   5.5624   0.3416   C.ar      1 RES1   0.0000
    62 Cl1      4.1620   1.9553   0.5945   Cl        2 RES2  -1.0000
    63 O3       5.0659   1.4498   3.4953   O.3       3 RES3   0.0000
    64 H21      4.2637   1.5156   3.7691   H         3 RES3   0.0000
    65 H22      5.0418   1.2984   2.6591   H         3 RES3   0.0000
    66 O4       7.2061   2.7481   4.8322   O.3       4 RES4   0.0000
    67 H23      7.8635   2.3528   4.4659   H         4 RES4   0.0000
    68 H24      7.3620   3.5837   4.8076   H         4 RES4   0.0000
    69 O5      12.0162  13.0536   3.2906   O.3       5 RES5   0.0000
    70 O6       9.8984  12.4012   1.4911   O.3       6 RES6   0.0000
    71 H25      9.6382  11.8711   0.8942   H         6 RES6   0.0000
    72 C33     10.6632  11.8114   2.2582   C.3       6 RES6   0.0000
    73 H26     11.5516  11.7522   1.8525   H         6 RES6   0.0000
    74 H27     10.3198  10.9102   2.4309   H         6 RES6   0.0000
    75 H28     10.7202  12.3054   3.1031   H         6 RES6   0.0000
@<TRIPOS>BOND
     1     1    15    1
     2     2    41    1
     3     3     4    1
     4     4    10    1
     5     5     3    1
     6     6     3    1
     7     7     3    1
     8     8     3    1
     9     9     3    1
    10    10    11   ar
    11    11    12    1
    12    13    11   ar
    13    14    13    1
    14    15    13   ar
    15    16    15   ar
    16    17    16    1
    17    18    10   ar
    18    19     6    2
    19    20    19    1
    20    21     6    1
    21    22    21   ar
    22    23    22    1
    23    24    22   ar
    24    25    24    1
    25    26    24   ar
    26    27    26    1
    27    28    26   ar
    28    29    28   ar
    29    30    29    1
    30    31    29   ar
    31    32    31    1
    32    33     7   ar
    33    34    33    1
    34    35     7   ar
    35    36     5    1
    36    37    36   ar
    37    38    37    1
    38    39    37   ar
    39    40    39    1
    40    41    39   ar
    41    42    41   ar
    42    43    42    1
    43    44    36   ar
    44    45     8    2
    45    46    45    1
    46    47     8    1
    47    48    47   ar
    48    49    48    1
    49    50    48   ar
    50    51    50    1
    51    52    50   ar
    52    53    52    1
    53    54    52   ar
    54    55    54   ar
    55    56    55    1
    56    57    55   ar
    57    58    57    1
    58    59     9   ar
    59    60    59    1
    60    61     9   ar
    61    16    18   ar
    62    18    19    1
    63    21    35   ar
    64    28    35   ar
    65    31    33   ar
    66    42    44   ar
    67    44    45    1
    68    47    61   ar
    69    54    61   ar
    70    57    59   ar
    71    63    64    1
    72    65    63    1
    73    66    67    1
    74    68    66    1
    75    70    71    1
    76    72    70    1
    77    73    72    1
    78    74    72    1
    79    75    72    1
@<TRIPOS>SUBSTRUCTURE
     1 RES1        1 GROUP             0 ****  ****    0  
     2 RES2       62 GROUP             0 ****  ****    0  
     3 RES3       63 GROUP             0 ****  ****    0  
     4 RES4       66 GROUP             0 ****  ****    0  
     5 RES5       69 GROUP             0 ****  ****    0  
     6 RES6       70 GROUP             0 ****  ****    0  
@<TRIPOS>CRYSIN
   10.7546   12.6720   13.9877   63.5580   74.5360   74.8640     2     1
