@<TRIPOS>MOLECULE
YAXVIG
   106   118     2     0     0
SMALL
USER_CHARGES
****
Generated from the CSD

@<TRIPOS>ATOM
     1 Br1     12.8976   4.9043   3.5254   Br        1 RES1   0.0000
     2 Br2      6.6347  -4.7302   5.9216   Br        1 RES1   0.0000
     3 Fe1      6.0230   2.3810   4.1286   Fe        1 RES1   1.0000
     4 O1       7.4987   2.8295   5.2077   O.3       1 RES1   0.0000
     5 O2       6.7940   0.7895   3.5448   O.3       1 RES1   0.0000
     6 N1       6.7589   3.1929   2.5330   N.2       1 RES1   0.0000
     7 N2       4.4528   2.0898   2.9528   N.ar      1 RES1   0.0000
     8 N3       5.1468   1.5887   5.6655   N.2       1 RES1   0.0000
     9 N4       5.1410   4.0161   4.7472   N.ar      1 RES1   0.0000
    10 C1       8.6497   3.2952   4.7799   C.ar      1 RES1   0.0000
    11 C2       9.6354   3.6173   5.7410   C.ar      1 RES1   0.0000
    12 H1       9.4349   3.5102   6.6632   H         1 RES1   0.0000
    13 C3      10.8745   4.0802   5.3762   C.ar      1 RES1   0.0000
    14 H2      11.5193   4.2904   6.0417   H         1 RES1   0.0000
    15 C4      11.1882   4.2418   4.0291   C.ar      1 RES1   0.0000
    16 C5      10.2642   3.9766   3.0685   C.ar      1 RES1   0.0000
    17 H3      10.4900   4.0963   2.1536   H         1 RES1   0.0000
    18 C6       8.9729   3.5246   3.4137   C.ar      1 RES1   0.0000
    19 C7       8.0104   3.4736   2.3606   C.2       1 RES1   0.0000
    20 H4       8.3075   3.6580   1.4772   H         1 RES1   0.0000
    21 C8       5.8150   3.3336   1.4734   C.ar      1 RES1   0.0000
    22 C9       5.9909   4.0183   0.2925   C.ar      1 RES1   0.0000
    23 H5       6.8114   4.4655   0.1156   H         1 RES1   0.0000
    24 C10      4.9493   4.0513  -0.6478   C.ar      1 RES1   0.0000
    25 H6       5.0752   4.5229  -1.4627   H         1 RES1   0.0000
    26 C11      3.7625   3.4224  -0.4202   C.ar      1 RES1   0.0000
    27 H7       3.0756   3.4574  -1.0754   H         1 RES1   0.0000
    28 C12      3.5470   2.7184   0.7876   C.ar      1 RES1   0.0000
    29 C13      2.3589   2.0267   1.1073   C.ar      1 RES1   0.0000
    30 H8       1.6345   2.0127   0.4929   H         1 RES1   0.0000
    31 C14      2.2568   1.3807   2.3010   C.ar      1 RES1   0.0000
    32 H9       1.4695   0.8964   2.5193   H         1 RES1   0.0000
    33 C15      3.3255   1.4391   3.2044   C.ar      1 RES1   0.0000
    34 H10      3.2378   0.9906   4.0369   H         1 RES1   0.0000
    35 C16      4.5828   2.7047   1.7303   C.ar      1 RES1   0.0000
    36 C17      6.7466  -0.3771   4.1440   C.ar      1 RES1   0.0000
    37 C18      7.4253  -1.4464   3.5383   C.ar      1 RES1   0.0000
    38 H11      7.9194  -1.2861   2.7433   H         1 RES1   0.0000
    39 C19      7.3971  -2.7099   4.0583   C.ar      1 RES1   0.0000
    40 H12      7.8609  -3.4155   3.6236   H         1 RES1   0.0000
    41 C20      6.6809  -2.9576   5.2349   C.ar      1 RES1   0.0000
    42 C21      6.0256  -1.9566   5.8779   C.ar      1 RES1   0.0000
    43 H13      5.5574  -2.1409   6.6834   H         1 RES1   0.0000
    44 C22      6.0363  -0.6369   5.3554   C.ar      1 RES1   0.0000
    45 C23      5.2785   0.3436   6.0384   C.2       1 RES1   0.0000
    46 H14      4.8294   0.0757   6.8309   H         1 RES1   0.0000
    47 C24      4.2707   2.4866   6.3312   C.ar      1 RES1   0.0000
    48 C25      3.4281   2.2126   7.3902   C.ar      1 RES1   0.0000
    49 H15      3.4108   1.3422   7.7704   H         1 RES1   0.0000
    50 C26      2.5975   3.2208   7.9051   C.ar      1 RES1   0.0000
    51 H16      2.0125   3.0164   8.6246   H         1 RES1   0.0000
    52 C27      2.6113   4.4864   7.3954   C.ar      1 RES1   0.0000
    53 H17      2.0353   5.1483   7.7602   H         1 RES1   0.0000
    54 C28      3.4741   4.8178   6.3310   C.ar      1 RES1   0.0000
    55 C29      3.6175   6.1078   5.7606   C.ar      1 RES1   0.0000
    56 H18      3.0701   6.8221   6.0648   H         1 RES1   0.0000
    57 C30      4.5309   6.3263   4.7828   C.ar      1 RES1   0.0000
    58 H19      4.6666   7.2027   4.4402   H         1 RES1   0.0000
    59 C31      5.2707   5.2533   4.2829   C.ar      1 RES1   0.0000
    60 H20      5.8913   5.4140   3.5816   H         1 RES1   0.0000
    61 C32      4.2862   3.7979   5.8039   C.ar      1 RES1   0.0000
    62 C33      4.9631   9.4528   2.2544   C.ar      2 RES2   0.0000
    63 C34      5.1696   8.6640   1.1180   C.ar      2 RES2   0.0000
    64 H21      5.9351   8.8334   0.5810   H         2 RES2   0.0000
    65 C35      4.3054   7.6416   0.7395   C.ar      2 RES2   0.0000
    66 H22      4.4941   7.1265  -0.0361   H         2 RES2   0.0000
    67 C36      3.1798   7.3726   1.4821   C.ar      2 RES2   0.0000
    68 H23      2.5973   6.6635   1.2358   H         2 RES2   0.0000
    69 C37      2.9088   8.1496   2.5939   C.ar      2 RES2   0.0000
    70 H24      2.1297   7.9841   3.1105   H         2 RES2   0.0000
    71 C38      3.7808   9.1760   2.9565   C.ar      2 RES2   0.0000
    72 H25      3.5639   9.7100   3.7117   H         2 RES2   0.0000
    73 C39      7.0773  11.1208   1.7405   C.ar      2 RES2   0.0000
    74 C40      8.4141  11.4616   1.9858   C.ar      2 RES2   0.0000
    75 H26      8.8149  11.1769   2.7997   H         2 RES2   0.0000
    76 C41      9.1773  12.1952   1.0931   C.ar      2 RES2   0.0000
    77 H27     10.0769  12.4119   1.3066   H         2 RES2   0.0000
    78 C42      8.6352  12.6140  -0.1100   C.ar      2 RES2   0.0000
    79 H28      9.1614  13.1003  -0.7343   H         2 RES2   0.0000
    80 C43      7.3283  12.3157  -0.3852   C.ar      2 RES2   0.0000
    81 H29      6.9392  12.6103  -1.1997   H         2 RES2   0.0000
    82 C44      6.5618  11.5804   0.5226   C.ar      2 RES2   0.0000
    83 H30      5.6569  11.3855   0.3050   H         2 RES2   0.0000
    84 C45      5.5597  11.6780   3.7314   C.ar      2 RES2   0.0000
    85 C46      4.3905  12.3580   3.3734   C.ar      2 RES2   0.0000
    86 H31      3.8744  12.0219   2.6494   H         2 RES2   0.0000
    87 C47      3.9488  13.5013   4.0264   C.ar      2 RES2   0.0000
    88 H32      3.1491  13.9310   3.7450   H         2 RES2   0.0000
    89 C48      4.6702  14.0100   5.0824   C.ar      2 RES2   0.0000
    90 H33      4.3689  14.7860   5.5401   H         2 RES2   0.0000
    91 C49      5.8353  13.3831   5.4680   C.ar      2 RES2   0.0000
    92 H34      6.3392  13.7302   6.1949   H         2 RES2   0.0000
    93 C50      6.2770  12.2449   4.8001   C.ar      2 RES2   0.0000
    94 H35      7.0903  11.8382   5.0747   H         2 RES2   0.0000
    95 C51      6.9745   9.3319   3.8097   C.ar      2 RES2   0.0000
    96 C52      7.8675   8.4307   3.2408   C.ar      2 RES2   0.0000
    97 H36      8.1089   8.5307   2.3271   H         2 RES2   0.0000
    98 C53      8.4262   7.3700   3.9892   C.ar      2 RES2   0.0000
    99 H37      9.0262   6.7599   3.5744   H         2 RES2   0.0000
   100 C54      8.1028   7.2205   5.3132   C.ar      2 RES2   0.0000
   101 H38      8.4753   6.5063   5.8162   H         2 RES2   0.0000
   102 C55      7.2512   8.0945   5.9015   C.ar      2 RES2   0.0000
   103 H39      7.0383   8.0015   6.8236   H         2 RES2   0.0000
   104 C56      6.6922   9.1164   5.1652   C.ar      2 RES2   0.0000
   105 H40      6.0843   9.7052   5.5980   H         2 RES2   0.0000
   106 B1       6.1405  10.4076   2.8757   B         2 RES2  -1.0000
@<TRIPOS>BOND
     1     1    15    1
     2     2    41    1
     3     3     4    1
     4     4    10    1
     5     5     3    1
     6     6     3    1
     7     7     3    1
     8     8     3    1
     9     9     3    1
    10    10    11   ar
    11    11    12    1
    12    13    11   ar
    13    14    13    1
    14    15    13   ar
    15    16    15   ar
    16    17    16    1
    17    18    10   ar
    18    19     6    2
    19    20    19    1
    20    21     6    1
    21    22    21   ar
    22    23    22    1
    23    24    22   ar
    24    25    24    1
    25    26    24   ar
    26    27    26    1
    27    28    26   ar
    28    29    28   ar
    29    30    29    1
    30    31    29   ar
    31    32    31    1
    32    33     7   ar
    33    34    33    1
    34    35     7   ar
    35    36     5    1
    36    37    36   ar
    37    38    37    1
    38    39    37   ar
    39    40    39    1
    40    41    39   ar
    41    42    41   ar
    42    43    42    1
    43    44    36   ar
    44    45     8    2
    45    46    45    1
    46    47     8    1
    47    48    47   ar
    48    49    48    1
    49    50    48   ar
    50    51    50    1
    51    52    50   ar
    52    53    52    1
    53    54    52   ar
    54    55    54   ar
    55    56    55    1
    56    57    55   ar
    57    58    57    1
    58    59     9   ar
    59    60    59    1
    60    61     9   ar
    61    16    18   ar
    62    18    19    1
    63    21    35   ar
    64    28    35   ar
    65    31    33   ar
    66    42    44   ar
    67    44    45    1
    68    47    61   ar
    69    54    61   ar
    70    57    59   ar
    71    62    63   ar
    72    63    64    1
    73    65    63   ar
    74    66    65    1
    75    67    65   ar
    76    68    67    1
    77    69    67   ar
    78    70    69    1
    79    71    62   ar
    80    72    71    1
    81    73    74   ar
    82    74    75    1
    83    76    74   ar
    84    77    76    1
    85    78    76   ar
    86    79    78    1
    87    80    78   ar
    88    81    80    1
    89    82    73   ar
    90    83    82    1
    91    84    85   ar
    92    85    86    1
    93    87    85   ar
    94    88    87    1
    95    89    87   ar
    96    90    89    1
    97    91    89   ar
    98    92    91    1
    99    93    84   ar
   100    94    93    1
   101    95    96   ar
   102    96    97    1
   103    98    96   ar
   104    99    98    1
   105   100    98   ar
   106   101   100    1
   107   102   100   ar
   108   103   102    1
   109   104    95   ar
   110   105   104    1
   111   106    62    1
   112    69    71   ar
   113    73   106    1
   114    80    82   ar
   115    84   106    1
   116    91    93   ar
   117    95   106    1
   118   102   104   ar
@<TRIPOS>SUBSTRUCTURE
     1 RES1        1 GROUP             0 ****  ****    0  
     2 RES2       62 GROUP             0 ****  ****    0  
@<TRIPOS>CRYSIN
   11.6596   14.2408   14.5222   85.0640   85.9370   70.4880     2     1
