@<TRIPOS>MOLECULE
YAXYOM
   113   119     4     0     0
SMALL
USER_CHARGES
****
Generated from the CSD

@<TRIPOS>ATOM
     1 Fe1     15.7857   3.1245  -0.5051   Fe        1 RES1   1.0000
     2 O1      14.4916   4.0716   0.4980   O.3       1 RES1   0.0000
     3 O2      15.3959   1.6888   0.5937   O.3       1 RES1   0.0000
     4 N1      16.2423   4.5998  -1.6009   N.2       1 RES1   0.0000
     5 N2      17.0763   2.1554  -1.5277   N.2       1 RES1   0.0000
     6 N3      17.1189   3.7001   0.8506   N.2       1 RES1   0.0000
     7 N4      18.6536   4.8298   2.0302   N.pl3     1 RES1   0.0000
     8 N5      14.3661   2.6233  -1.7823   N.2       1 RES1   0.0000
     9 N6      12.9613   1.4316  -3.0092   N.pl3     1 RES1   0.0000
    10 C1      13.5430   5.9965   1.6201   C.3       1 RES1   0.0000
    11 C2      14.4152   5.3754   0.5250   C.2       1 RES1   0.0000
    12 C3      15.0338   6.2625  -0.3571   C.2       1 RES1   0.0000
    13 C4      15.8501   5.8806  -1.4365   C.2       1 RES1   0.0000
    14 C5      16.2380   6.9088  -2.4313   C.3       1 RES1   0.0000
    15 C6      16.9970   4.1700  -2.7715   C.3       1 RES1   0.0000
    16 C7      17.8424   2.9873  -2.4245   C.3       1 RES1   0.0000
    17 C8      18.4662   0.3131  -2.3366   C.3       1 RES1   0.0000
    18 C9      17.3622   0.8901  -1.4725   C.2       1 RES1   0.0000
    19 C10     16.6370  -0.0735  -0.5712   C.ar      1 RES1   0.0000
    20 C11     16.8700  -1.4366  -0.6489   C.ar      1 RES1   0.0000
    21 C12     16.2550  -2.2741   0.2073   C.ar      1 RES1   0.0000
    22 C13     15.3856  -1.8173   1.1773   C.ar      1 RES1   0.0000
    23 C14     15.1268  -0.5326   1.2708   C.ar      1 RES1   0.0000
    24 C15     15.7188   0.4041   0.4056   C.ar      1 RES1   0.0000
    25 C16     17.0572   3.3041   2.0989   C.2       1 RES1   0.0000
    26 C17     17.9747   3.9618   2.8335   C.2       1 RES1   0.0000
    27 C18     18.1412   4.6716   0.7808   C.2       1 RES1   0.0000
    28 C19     14.0069   1.3868  -2.1992   C.2       1 RES1   0.0000
    29 C20     12.6127   2.7772  -3.1242   C.2       1 RES1   0.0000
    30 C21     13.4649   3.4603  -2.3569   C.2       1 RES1   0.0000
    31 H1      12.6558   6.0764   1.2900   H         1 RES1   0.0000
    32 H2      13.8820   6.8545   1.8488   H         1 RES1   0.0000
    33 H3      13.5524   5.4039   2.3637   H         1 RES1   0.0000
    34 H4      14.8930   7.1917  -0.2186   H         1 RES1   0.0000
    35 H5      17.0577   7.3022  -2.1552   H         1 RES1   0.0000
    36 H6      15.5605   7.5726  -2.4808   H         1 RES1   0.0000
    37 H7      16.3494   6.5152  -3.2886   H         1 RES1   0.0000
    38 H8      16.3935   3.9331  -3.4655   H         1 RES1   0.0000
    39 H9      17.5545   4.8810  -3.0644   H         1 RES1   0.0000
    40 H10     18.6416   3.2727  -1.9986   H         1 RES1   0.0000
    41 H11     18.0588   2.5021  -3.2120   H         1 RES1   0.0000
    42 H12     18.0976   0.0263  -3.1636   H         1 RES1   0.0000
    43 H13     18.8650  -0.4250  -1.8905   H         1 RES1   0.0000
    44 H14     19.1224   0.9813  -2.4977   H         1 RES1   0.0000
    45 H15     17.4630  -1.7814  -1.3058   H         1 RES1   0.0000
    46 H16     16.4257  -3.2068   0.1431   H         1 RES1   0.0000
    47 H17     14.9742  -2.4304   1.7756   H         1 RES1   0.0000
    48 H18     14.5250  -0.2299   1.9412   H         1 RES1   0.0000
    49 H19     16.4544   2.6521   2.4347   H         1 RES1   0.0000
    50 H20     18.1246   3.8395   3.7641   H         1 RES1   0.0000
    51 H21     19.3451   5.4248   2.2927   H         1 RES1   0.0000
    52 H22     18.4224   5.1323  -0.0011   H         1 RES1   0.0000
    53 H23     14.4496   0.5861  -1.9412   H         1 RES1   0.0000
    54 H24     12.5337   0.6931  -3.4283   H         1 RES1   0.0000
    55 H25     11.9068   3.1374  -3.6480   H         1 RES1   0.0000
    56 H26     13.4431   4.4017  -2.2307   H         1 RES1   0.0000
    57 O3      12.8629   2.5374   2.1203   O.3       2 RES2   0.0000
    58 C22     11.9310   2.1729   1.1604   C.3       2 RES2   0.0000
    59 H27     11.6445   2.9701   0.7267   H         2 RES2   0.0000
    60 H28     11.1978   1.7392   1.5784   H         2 RES2   0.0000
    61 H29     12.3264   1.5908   0.5216   H         2 RES2   0.0000
    62 H30     13.6262   2.1467   1.6730   H         2 RES2   0.0000
    63 O4      12.7859   0.8140   4.1787   O.3       3 RES3   0.0000
    64 C23     12.2723   1.3195   5.3538   C.3       3 RES3   0.0000
    65 H31     12.9797   1.6644   5.8855   H         3 RES3   0.0000
    66 H32     11.8270   0.6270   5.8281   H         3 RES3   0.0000
    67 H33     11.6626   2.0187   5.1453   H         3 RES3   0.0000
    68 H34     12.8134   1.4613   3.3472   H         3 RES3   0.0000
    69 C24      7.5209   2.0601   8.1636   C.ar      4 RES4   0.0000
    70 C25      6.5450   2.4416   9.0457   C.ar      4 RES4   0.0000
    71 C26      6.6995   2.3419  10.4394   C.ar      4 RES4   0.0000
    72 C27      7.8295   1.8404  10.9599   C.ar      4 RES4   0.0000
    73 C28      8.8271   1.4485  10.1239   C.ar      4 RES4   0.0000
    74 C29      8.6697   1.5693   8.7663   C.ar      4 RES4   0.0000
    75 C30      5.9000   2.5076   6.0692   C.ar      4 RES4   0.0000
    76 C31      4.9290   1.7801   5.4946   C.ar      4 RES4   0.0000
    77 C32      3.6891   2.2590   5.1791   C.ar      4 RES4   0.0000
    78 C33      3.3432   3.4948   5.3999   C.ar      4 RES4   0.0000
    79 C34      4.3137   4.4088   5.9599   C.ar      4 RES4   0.0000
    80 C35      5.5583   3.8792   6.2742   C.ar      4 RES4   0.0000
    81 C36      7.6318   0.4588   6.1582   C.ar      4 RES4   0.0000
    82 C37      8.6318  -0.0502   5.3549   C.ar      4 RES4   0.0000
    83 C38      8.8166  -1.4649   5.2050   C.ar      4 RES4   0.0000
    84 C39      8.0108  -2.3848   5.8337   C.ar      4 RES4   0.0000
    85 C40      6.9925  -1.9295   6.6100   C.ar      4 RES4   0.0000
    86 C41      6.8353  -0.5441   6.7677   C.ar      4 RES4   0.0000
    87 C42      8.4958   2.9786   5.7672   C.ar      4 RES4   0.0000
    88 C43      8.5512   3.0277   4.3680   C.ar      4 RES4   0.0000
    89 C44      9.4767   3.8528   3.6841   C.ar      4 RES4   0.0000
    90 C45     10.3415   4.5828   4.3725   C.ar      4 RES4   0.0000
    91 C46     10.2946   4.5709   5.7289   C.ar      4 RES4   0.0000
    92 C47      9.4097   3.8402   6.4173   C.ar      4 RES4   0.0000
    93 B1       7.3941   1.9870   6.5221   B         4 RES4  -1.0000
    94 H35      5.7311   2.7917   8.7010   H         4 RES4   0.0000
    95 H36      6.0006   2.6276  11.0151   H         4 RES4   0.0000
    96 H37      7.9334   1.7626  11.9006   H         4 RES4   0.0000
    97 H38      9.6329   1.0917  10.4788   H         4 RES4   0.0000
    98 H39      9.3888   1.2992   8.2075   H         4 RES4   0.0000
    99 H40      5.1179   0.8705   5.2929   H         4 RES4   0.0000
   100 H41      3.0557   1.6692   4.7859   H         4 RES4   0.0000
   101 H42      2.4646   3.7907   5.1972   H         4 RES4   0.0000
   102 H43      4.1104   5.3252   6.1041   H         4 RES4   0.0000
   103 H44      6.2145   4.4566   6.6460   H         4 RES4   0.0000
   104 H45      9.2080   0.5480   4.8930   H         4 RES4   0.0000
   105 H46      9.5217  -1.7784   4.6507   H         4 RES4   0.0000
   106 H47      8.1621  -3.3164   5.7278   H         4 RES4   0.0000
   107 H48      6.3990  -2.5368   7.0369   H         4 RES4   0.0000
   108 H49      6.1317  -0.2524   7.3355   H         4 RES4   0.0000
   109 H50      7.9512   2.4903   3.8632   H         4 RES4   0.0000
   110 H51      9.4779   3.8828   2.7343   H         4 RES4   0.0000
   111 H52     10.9891   5.1127   3.9196   H         4 RES4   0.0000
   112 H53     10.9170   5.1028   6.2100   H         4 RES4   0.0000
   113 H54      9.3951   3.9024   7.3648   H         4 RES4   0.0000
@<TRIPOS>BOND
     1     1     2    1
     2     2    11    1
     3     3     1    1
     4     4     1    1
     5     5     1    1
     6     6     1    1
     7     7    26    1
     8     8     1    1
     9     9    28    1
    10    10    11    1
    11    11    12    2
    12    12    13    1
    13    13     4    2
    14    14    13    1
    15    15     4    1
    16    16     5    1
    17    17    18    1
    18    18     5    2
    19    19    18    1
    20    20    19   ar
    21    21    20   ar
    22    22    21   ar
    23    23    22   ar
    24    24     3    1
    25    25     6    1
    26    26    25    2
    27    27     6    2
    28    28     8    2
    29    29     9    1
    30    30     8    1
    31    31    10    1
    32    32    10    1
    33    33    10    1
    34    34    12    1
    35    35    14    1
    36    36    14    1
    37    37    14    1
    38    38    15    1
    39    39    15    1
    40    40    16    1
    41    41    16    1
    42    42    17    1
    43    43    17    1
    44    44    17    1
    45    45    20    1
    46    46    21    1
    47    47    22    1
    48    48    23    1
    49    49    25    1
    50    50    26    1
    51    51     7    1
    52    52    27    1
    53    53    28    1
    54    54     9    1
    55    55    29    1
    56    56    30    1
    57     7    27    1
    58    15    16    1
    59    19    24   ar
    60    23    24   ar
    61    29    30    2
    62    57    58    1
    63    58    59    1
    64    60    58    1
    65    61    58    1
    66    62    57    1
    67    63    64    1
    68    64    65    1
    69    66    64    1
    70    67    64    1
    71    68    63    1
    72    69    70   ar
    73    70    71   ar
    74    71    72   ar
    75    72    73   ar
    76    73    74   ar
    77    74    69   ar
    78    75    76   ar
    79    76    77   ar
    80    77    78   ar
    81    78    79   ar
    82    79    80   ar
    83    80    75   ar
    84    81    82   ar
    85    82    83   ar
    86    83    84   ar
    87    84    85   ar
    88    85    86   ar
    89    86    81   ar
    90    87    88   ar
    91    88    89   ar
    92    89    90   ar
    93    90    91   ar
    94    91    92   ar
    95    92    87   ar
    96    93    69    1
    97    94    70    1
    98    95    71    1
    99    96    72    1
   100    97    73    1
   101    98    74    1
   102    99    76    1
   103   100    77    1
   104   101    78    1
   105   102    79    1
   106   103    80    1
   107   104    82    1
   108   105    83    1
   109   106    84    1
   110   107    85    1
   111   108    86    1
   112   109    88    1
   113   110    89    1
   114   111    90    1
   115   112    91    1
   116   113    92    1
   117    75    93    1
   118    81    93    1
   119    87    93    1
@<TRIPOS>SUBSTRUCTURE
     1 RES1        1 GROUP             0 ****  ****    0  
     2 RES2       57 GROUP             0 ****  ****    0  
     3 RES3       63 GROUP             0 ****  ****    0  
     4 RES4       69 GROUP             0 ****  ****    0  
@<TRIPOS>CRYSIN
   12.3970   15.5410   12.1020  110.2000   98.4100   85.3700     2     1
