@<TRIPOS>MOLECULE
YAZJIT01
   163   174     5     0     0
SMALL
USER_CHARGES
****
Generated from the CSD

@<TRIPOS>ATOM
     1 Fe1      2.2234   4.8998   6.3607   Fe        1 RES1   2.0000
     2 N1       0.7735   6.1760  10.0698   N.pl3     1 RES1   0.0000
     3 H1       0.2054   6.2898  10.7323   H         1 RES1   0.0000
     4 N2       1.6102   5.4667   8.1648   N.2       1 RES1   0.0000
     5 N3       3.8563   5.7852   6.9989   N.2       1 RES1   0.0000
     6 N4       3.0974   4.6089   4.5442   N.ar      1 RES1   0.0000
     7 N5       0.4127   8.4596   5.1218   N.pl3     1 RES1   0.0000
     8 H2       0.3170   9.3156   4.9432   H         1 RES1   0.0000
     9 N6       1.3625   6.5749   5.6943   N.2       1 RES1   0.0000
    10 N7       0.5147   4.1563   5.7961   N.2       1 RES1   0.0000
    11 N8       2.7758   3.0788   7.0607   N.ar      1 RES1   0.0000
    12 C1      -0.7544   4.7367   8.7479   C.3       1 RES1   0.0000
    13 H3      -1.3340   4.8776   9.5253   H         1 RES1   0.0000
    14 H4      -0.6033   3.7757   8.6224   H         1 RES1   0.0000
    15 H5      -1.1849   5.1064   7.9494   H         1 RES1   0.0000
    16 C2       0.5492   5.4193   8.9713   C.2       1 RES1   0.0000
    17 C3       2.0023   6.7305   9.9955   C.2       1 RES1   0.0000
    18 H6       2.4099   7.3156  10.6229   H         1 RES1   0.0000
    19 C4       2.5375   6.2657   8.8169   C.2       1 RES1   0.0000
    20 C5       3.7952   6.3837   8.1301   C.2       1 RES1   0.0000
    21 H7       4.5281   6.8692   8.4889   H         1 RES1   0.0000
    22 C6       5.1498   5.7960   6.2870   C.3       1 RES1   0.0000
    23 H8       5.8850   5.9166   6.9382   H         1 RES1   0.0000
    24 H9       5.1729   6.5566   5.6534   H         1 RES1   0.0000
    25 C7       5.3507   4.4942   5.5256   C.3       1 RES1   0.0000
    26 H10      6.2880   4.4345   5.2146   H         1 RES1   0.0000
    27 H11      5.1801   3.7288   6.1295   H         1 RES1   0.0000
    28 C8       4.4288   4.4172   4.3493   C.ar      1 RES1   0.0000
    29 C9       4.9734   4.2854   3.0828   C.ar      1 RES1   0.0000
    30 H12      5.9077   4.1504   2.9821   H         1 RES1   0.0000
    31 C10      4.1662   4.3500   1.9689   C.ar      1 RES1   0.0000
    32 H13      4.5323   4.2843   1.0944   H         1 RES1   0.0000
    33 C11      2.7899   4.5161   2.1655   C.ar      1 RES1   0.0000
    34 H14      2.1937   4.5271   1.4259   H         1 RES1   0.0000
    35 C12      2.3261   4.6613   3.4216   C.ar      1 RES1   0.0000
    36 H15      1.3949   4.8108   3.5337   H         1 RES1   0.0000
    37 C13      2.7843   8.6633   5.8280   C.3       1 RES1   0.0000
    38 H16      2.6196   9.6100   5.6326   H         1 RES1   0.0000
    39 H17      3.5107   8.3334   5.2584   H         1 RES1   0.0000
    40 H18      3.0365   8.5634   6.7697   H         1 RES1   0.0000
    41 C14      1.5521   7.8820   5.5601   C.2       1 RES1   0.0000
    42 C15     -0.5704   7.5146   4.9973   C.2       1 RES1   0.0000
    43 H19     -1.4673   7.6435   4.7123   H         1 RES1   0.0000
    44 C16      0.0223   6.3485   5.3720   C.2       1 RES1   0.0000
    45 C17     -0.3990   4.9696   5.3849   C.2       1 RES1   0.0000
    46 H20     -1.2659   4.6874   5.1161   H         1 RES1   0.0000
    47 C18      0.1658   2.7288   5.7670   C.3       1 RES1   0.0000
    48 H21     -0.5526   2.5709   5.1041   H         1 RES1   0.0000
    49 H22     -0.1643   2.4446   6.6559   H         1 RES1   0.0000
    50 C19      1.4087   1.9229   5.3908   C.3       1 RES1   0.0000
    51 H23      1.1431   0.9920   5.1807   H         1 RES1   0.0000
    52 H24      1.8177   2.3141   4.5788   H         1 RES1   0.0000
    53 C20      2.4167   1.9111   6.4923   C.ar      1 RES1   0.0000
    54 C21      2.8843   0.6904   6.9612   C.ar      1 RES1   0.0000
    55 H25      2.6492  -0.1138   6.5147   H         1 RES1   0.0000
    56 C22      3.6751   0.6550   8.0566   C.ar      1 RES1   0.0000
    57 H26      4.0097  -0.1726   8.3838   H         1 RES1   0.0000
    58 C23      3.9903   1.8407   8.6922   C.ar      1 RES1   0.0000
    59 H27      4.5189   1.8409   9.4815   H         1 RES1   0.0000
    60 C24      3.5301   3.0120   8.1669   C.ar      1 RES1   0.0000
    61 H28      3.7550   3.8238   8.6082   H         1 RES1   0.0000
    62 B1       1.7931  -2.8154   3.2240   B         2 RES2  -1.0000
    63 C25      2.2681  -2.6986   4.7888   C.ar      2 RES2   0.0000
    64 C26      1.3979  -2.8984   5.8597   C.ar      2 RES2   0.0000
    65 H29      0.4731  -3.0193   5.6808   H         2 RES2   0.0000
    66 C27      1.8314  -2.9282   7.1748   C.ar      2 RES2   0.0000
    67 H30      1.2086  -3.0648   7.8783   H         2 RES2   0.0000
    68 C28      3.1860  -2.7563   7.4638   C.ar      2 RES2   0.0000
    69 H31      3.4947  -2.7653   8.3620   H         2 RES2   0.0000
    70 C29      4.0739  -2.5704   6.4125   C.ar      2 RES2   0.0000
    71 H32      5.0016  -2.4641   6.5891   H         2 RES2   0.0000
    72 C30      3.6204  -2.5421   5.1330   C.ar      2 RES2   0.0000
    73 H33      4.2502  -2.4083   4.4343   H         2 RES2   0.0000
    74 C31      2.6337  -1.7482   2.2864   C.ar      2 RES2   0.0000
    75 C32      3.1177  -0.5390   2.7664   C.ar      2 RES2   0.0000
    76 H34      3.0181  -0.3507   3.6924   H         2 RES2   0.0000
    77 C33      3.7332   0.4001   1.9759   C.ar      2 RES2   0.0000
    78 H35      4.0748   1.1939   2.3682   H         2 RES2   0.0000
    79 C34      3.8587   0.1996   0.6216   C.ar      2 RES2   0.0000
    80 H36      4.2679   0.8541   0.0668   H         2 RES2   0.0000
    81 C35      3.3677  -0.9932   0.0831   C.ar      2 RES2   0.0000
    82 H37      3.4514  -1.1617  -0.8481   H         2 RES2   0.0000
    83 C36      2.7600  -1.9303   0.9027   C.ar      2 RES2   0.0000
    84 H38      2.4160  -2.7261   0.5122   H         2 RES2   0.0000
    85 C37      0.2420  -2.3875   3.0129   C.ar      2 RES2   0.0000
    86 C38     -0.4054  -1.3969   3.7517   C.ar      2 RES2   0.0000
    87 H39      0.0735  -0.9998   4.4693   H         2 RES2   0.0000
    88 C39     -1.6815  -0.9552   3.5185   C.ar      2 RES2   0.0000
    89 H40     -2.0626  -0.2866   4.0754   H         2 RES2   0.0000
    90 C40     -2.4081  -1.4803   2.4767   C.ar      2 RES2   0.0000
    91 H41     -3.2928  -1.1815   2.3036   H         2 RES2   0.0000
    92 C41     -1.8201  -2.4583   1.6818   C.ar      2 RES2   0.0000
    93 H42     -2.2959  -2.8204   0.9433   H         2 RES2   0.0000
    94 C42     -0.5505  -2.9032   1.9633   C.ar      2 RES2   0.0000
    95 H43     -0.1868  -3.5948   1.4227   H         2 RES2   0.0000
    96 C43      1.9909  -4.4011   2.8511   C.ar      2 RES2   0.0000
    97 C44      1.2230  -5.3615   3.5223   C.ar      2 RES2   0.0000
    98 H44      0.5741  -5.0618   4.1476   H         2 RES2   0.0000
    99 C45      1.3582  -6.7160   3.3231   C.ar      2 RES2   0.0000
   100 H45      0.8032  -7.3229   3.7974   H         2 RES2   0.0000
   101 C46      2.3027  -7.1923   2.4312   C.ar      2 RES2   0.0000
   102 H46      2.3864  -8.1256   2.2686   H         2 RES2   0.0000
   103 C47      3.1236  -6.2887   1.7803   C.ar      2 RES2   0.0000
   104 H47      3.7867  -6.5932   1.1721   H         2 RES2   0.0000
   105 C48      2.9695  -4.9507   2.0225   C.ar      2 RES2   0.0000
   106 H48      3.5722  -4.3542   1.5956   H         2 RES2   0.0000
   107 B2       0.5548  11.9953   8.0370   B         3 RES3  -1.0000
   108 C49     -0.4480  10.9898   8.8612   C.ar      3 RES3   0.0000
   109 C50     -1.1612  11.3633   9.9866   C.ar      3 RES3   0.0000
   110 H49     -1.0856  12.2594  10.2902   H         3 RES3   0.0000
   111 C51     -1.9899  10.4880  10.7036   C.ar      3 RES3   0.0000
   112 H50     -2.4609  10.7967  11.4677   H         3 RES3   0.0000
   113 C52     -2.1180   9.1801  10.2974   C.ar      3 RES3   0.0000
   114 H51     -2.6844   8.5782  10.7663   H         3 RES3   0.0000
   115 C53     -1.4041   8.7600   9.1928   C.ar      3 RES3   0.0000
   116 H52     -1.4596   7.8552   8.9080   H         3 RES3   0.0000
   117 C54     -0.6151   9.6466   8.5054   C.ar      3 RES3   0.0000
   118 H53     -0.1524   9.3279   7.7393   H         3 RES3   0.0000
   119 C55      0.3243  11.7468   6.4393   C.ar      3 RES3   0.0000
   120 C56     -0.9649  11.5906   5.9101   C.ar      3 RES3   0.0000
   121 H54     -1.7008  11.5838   6.5103   H         3 RES3   0.0000
   122 C57     -1.2156  11.4468   4.5788   C.ar      3 RES3   0.0000
   123 H55     -2.1104  11.3510   4.2745   H         3 RES3   0.0000
   124 C58     -0.1782  11.4384   3.6687   C.ar      3 RES3   0.0000
   125 H56     -0.3519  11.3292   2.7414   H         3 RES3   0.0000
   126 C59      1.1355  11.5950   4.1335   C.ar      3 RES3   0.0000
   127 H57      1.8616  11.6082   3.5216   H         3 RES3   0.0000
   128 C60      1.3660  11.7310   5.4958   C.ar      3 RES3   0.0000
   129 H58      2.2608  11.8179   5.8023   H         3 RES3   0.0000
   130 C61      2.1117  11.6797   8.4646   C.ar      3 RES3   0.0000
   131 C62      2.5537  10.5016   9.0675   C.ar      3 RES3   0.0000
   132 H59      1.9204   9.8235   9.2670   H         3 RES3   0.0000
   133 C63      3.8796  10.2898   9.3829   C.ar      3 RES3   0.0000
   134 H60      4.1282   9.4699   9.7945   H         3 RES3   0.0000
   135 C64      4.8726  11.2388   9.1175   C.ar      3 RES3   0.0000
   136 H61      5.7826  11.0856   9.3414   H         3 RES3   0.0000
   137 C65      4.4570  12.4178   8.5094   C.ar      3 RES3   0.0000
   138 H62      5.0981  13.0897   8.3116   H         3 RES3   0.0000
   139 C66      3.1248  12.6343   8.1857   C.ar      3 RES3   0.0000
   140 H63      2.8822  13.4504   7.7623   H         3 RES3   0.0000
   141 C67      0.2378  13.5638   8.3785   C.ar      3 RES3   0.0000
   142 C68      0.5490  14.0911   9.6283   C.ar      3 RES3   0.0000
   143 H64      0.9898  13.5363  10.2618   H         3 RES3   0.0000
   144 C69      0.2354  15.4132   9.9870   C.ar      3 RES3   0.0000
   145 H65      0.4773  15.7334  10.8483   H         3 RES3   0.0000
   146 C70     -0.4096  16.2439   9.1222   C.ar      3 RES3   0.0000
   147 H66     -0.6482  17.1284   9.3721   H         3 RES3   0.0000
   148 C71     -0.7030  15.7472   7.8660   C.ar      3 RES3   0.0000
   149 H67     -1.1227  16.3178   7.2337   H         3 RES3   0.0000
   150 C72     -0.4060  14.4438   7.4971   C.ar      3 RES3   0.0000
   151 H68     -0.6438  14.1406   6.6285   H         3 RES3   0.0000
   152 N9      -0.7750   3.1860   2.6038   N.1       4 RES4   0.0000
   153 C73     -0.3979   2.3124   2.0070   C.1       4 RES4   0.0000
   154 C74      0.0971   1.1598   1.2773   C.3       4 RES4   0.0000
   155 H69     -0.6095   0.4824   1.2169   H         4 RES4   0.0000
   156 H70      0.8711   0.7830   1.7466   H         4 RES4   0.0000
   157 H71      0.3642   1.4335   0.3754   H         4 RES4   0.0000
   158 N10     -1.8486   5.8410  11.7222   N.1       5 RES5   0.0000
   159 C75     -2.9028   5.4941  12.0376   C.1       5 RES5   0.0000
   160 C76     -4.2172   5.0539  12.4133   C.3       5 RES5   0.0000
   161 H72     -4.5532   5.6150  13.1421   H         5 RES5   0.0000
   162 H73     -4.1770   4.1220  12.7109   H         5 RES5   0.0000
   163 H74     -4.8181   5.1249  11.6417   H         5 RES5   0.0000
@<TRIPOS>BOND
     1     1     4    1
     2     2     3    1
     3     4    16    2
     4     5     1    1
     5     6     1    1
     6     7     8    1
     7     9     1    1
     8    10     1    1
     9    11     1    1
    10    12    13    1
    11    14    12    1
    12    15    12    1
    13    16     2    1
    14    17     2    1
    15    18    17    1
    16    19     4    1
    17    20     5    2
    18    21    20    1
    19    22     5    1
    20    23    22    1
    21    24    22    1
    22    25    22    1
    23    26    25    1
    24    27    25    1
    25    28     6   ar
    26    29    28   ar
    27    30    29    1
    28    31    29   ar
    29    32    31    1
    30    33    31   ar
    31    34    33    1
    32    35     6   ar
    33    36    35    1
    34    37    38    1
    35    39    37    1
    36    40    37    1
    37    41     7    1
    38    42     7    1
    39    43    42    1
    40    44     9    1
    41    45    10    2
    42    46    45    1
    43    47    10    1
    44    48    47    1
    45    49    47    1
    46    50    47    1
    47    51    50    1
    48    52    50    1
    49    53    11   ar
    50    54    53   ar
    51    55    54    1
    52    56    54   ar
    53    57    56    1
    54    58    56   ar
    55    59    58    1
    56    60    11   ar
    57    61    60    1
    58     9    41    2
    59    12    16    1
    60    17    19    2
    61    19    20    1
    62    25    28    1
    63    33    35   ar
    64    37    41    1
    65    42    44    2
    66    44    45    1
    67    50    53    1
    68    58    60   ar
    69    62    63    1
    70    63    64   ar
    71    64    65    1
    72    66    64   ar
    73    67    66    1
    74    68    66   ar
    75    69    68    1
    76    70    68   ar
    77    71    70    1
    78    72    63   ar
    79    73    72    1
    80    74    62    1
    81    75    74   ar
    82    76    75    1
    83    77    75   ar
    84    78    77    1
    85    79    77   ar
    86    80    79    1
    87    81    79   ar
    88    82    81    1
    89    83    74   ar
    90    84    83    1
    91    85    62    1
    92    86    85   ar
    93    87    86    1
    94    88    86   ar
    95    89    88    1
    96    90    88   ar
    97    91    90    1
    98    92    90   ar
    99    93    92    1
   100    94    85   ar
   101    95    94    1
   102    96    62    1
   103    97    96   ar
   104    98    97    1
   105    99    97   ar
   106   100    99    1
   107   101    99   ar
   108   102   101    1
   109   103   101   ar
   110   104   103    1
   111   105    96   ar
   112   106   105    1
   113    70    72   ar
   114    81    83   ar
   115    92    94   ar
   116   103   105   ar
   117   107   108    1
   118   108   109   ar
   119   109   110    1
   120   111   109   ar
   121   112   111    1
   122   113   111   ar
   123   114   113    1
   124   115   113   ar
   125   116   115    1
   126   117   108   ar
   127   118   117    1
   128   119   107    1
   129   120   119   ar
   130   121   120    1
   131   122   120   ar
   132   123   122    1
   133   124   122   ar
   134   125   124    1
   135   126   124   ar
   136   127   126    1
   137   128   119   ar
   138   129   128    1
   139   130   107    1
   140   131   130   ar
   141   132   131    1
   142   133   131   ar
   143   134   133    1
   144   135   133   ar
   145   136   135    1
   146   137   135   ar
   147   138   137    1
   148   139   130   ar
   149   140   139    1
   150   141   107    1
   151   142   141   ar
   152   143   142    1
   153   144   142   ar
   154   145   144    1
   155   146   144   ar
   156   147   146    1
   157   148   146   ar
   158   149   148    1
   159   150   141   ar
   160   151   150    1
   161   115   117   ar
   162   126   128   ar
   163   137   139   ar
   164   148   150   ar
   165   152   153    3
   166   153   154    1
   167   154   155    1
   168   156   154    1
   169   157   154    1
   170   158   159    3
   171   159   160    1
   172   160   161    1
   173   162   160    1
   174   163   160    1
@<TRIPOS>SUBSTRUCTURE
     1 RES1        1 GROUP             0 ****  ****    0  
     2 RES2       62 GROUP             0 ****  ****    0  
     3 RES3      107 GROUP             0 ****  ****    0  
     4 RES4      152 GROUP             0 ****  ****    0  
     5 RES5      158 GROUP             0 ****  ****    0  
@<TRIPOS>CRYSIN
   12.9678   22.2310   11.3416   95.2600  103.5960   96.0390     2     1
