@<TRIPOS>MOLECULE
YAZJEP
   146   158     4     0     0
SMALL
USER_CHARGES
****
Generated from the CSD

@<TRIPOS>ATOM
     1 Fe1      2.8485   3.7068  12.9741   Fe        1 RES1   2.0000
     2 N1       2.0061   6.8673  15.5614   N.pl3     1 RES1   0.0000
     3 H1       1.6260   7.2763  16.2147   H         1 RES1   0.0000
     4 N2       2.4975   5.2493  14.1388   N.2       1 RES1   0.0000
     5 N3       4.2388   4.9158  12.3680   N.2       1 RES1   0.0000
     6 N4       3.4527   2.2810  11.7127   N.ar      1 RES1   0.0000
     7 N5       0.3147   5.1307  10.0162   N.pl3     1 RES1   0.0000
     8 H2       0.0695   5.5442   9.3033   H         1 RES1   0.0000
     9 N6       1.5985   4.3731  11.6043   N.2       1 RES1   0.0000
    10 N7       1.2260   2.8455  13.5892   N.2       1 RES1   0.0000
    11 N8       3.9000   2.8416  14.4459   N.ar      1 RES1   0.0000
    12 C1       1.7054   5.6141  15.1451   C.2       1 RES1   0.0000
    13 H3       1.0371   5.0809  15.5115   H         1 RES1   0.0000
    14 C2       3.0110   7.3875  14.7829   C.2       1 RES1   0.0000
    15 H4       3.4000   8.2303  14.8374   H         1 RES1   0.0000
    16 C3       3.3101   6.3661  13.8963   C.2       1 RES1   0.0000
    17 C4       4.2774   6.1335  12.8851   C.2       1 RES1   0.0000
    18 H5       4.8860   6.7800  12.6090   H         1 RES1   0.0000
    19 C5       5.2188   4.5934  11.3606   C.3       1 RES1   0.0000
    20 H6       5.9520   5.2280  11.4040   H         1 RES1   0.0000
    21 H7       4.8154   4.6589  10.4813   H         1 RES1   0.0000
    22 C6       5.7400   3.2085  11.5725   C.3       1 RES1   0.0000
    23 H8       6.5148   3.0780  11.0032   H         1 RES1   0.0000
    24 H9       6.0360   3.1261  12.4925   H         1 RES1   0.0000
    25 C7       4.7522   2.1293  11.2901   C.ar      1 RES1   0.0000
    26 C8       5.1420   1.0039  10.6054   C.ar      1 RES1   0.0000
    27 H10      6.0245   0.9156  10.3268   H         1 RES1   0.0000
    28 C9       4.2650   0.0401  10.3396   C.ar      1 RES1   0.0000
    29 H11      4.5552  -0.7616   9.9685   H         1 RES1   0.0000
    30 C10      2.9378   0.2252  10.6097   C.ar      1 RES1   0.0000
    31 H12      2.2994  -0.3959  10.3402   H         1 RES1   0.0000
    32 C11      2.5758   1.3709  11.3010   C.ar      1 RES1   0.0000
    33 H13      1.6750   1.5094  11.4869   H         1 RES1   0.0000
    34 C12      1.5659   5.1115  10.4936   C.2       1 RES1   0.0000
    35 H14      2.2945   5.5442  10.1118   H         1 RES1   0.0000
    36 C13     -0.5098   4.4088  10.8119   C.2       1 RES1   0.0000
    37 H15     -1.4210   4.2657  10.7008   H         1 RES1   0.0000
    38 C14      0.2843   3.9395  11.8096   C.2       1 RES1   0.0000
    39 C15      0.1130   3.1160  12.9494   C.2       1 RES1   0.0000
    40 H16     -0.7161   2.7948  13.2204   H         1 RES1   0.0000
    41 C16      1.1434   1.9588  14.7505   C.3       1 RES1   0.0000
    42 H17      0.3009   1.4778  14.7366   H         1 RES1   0.0000
    43 H18      1.1808   2.4813  15.5675   H         1 RES1   0.0000
    44 C17      2.2891   0.9822  14.7157   C.3       1 RES1   0.0000
    45 H19      2.1312   0.2873  15.3726   H         1 RES1   0.0000
    46 H20      2.3196   0.5623  13.8430   H         1 RES1   0.0000
    47 C18      3.6154   1.6281  14.9948   C.ar      1 RES1   0.0000
    48 C19      4.4938   1.0053  15.8826   C.ar      1 RES1   0.0000
    49 H21      4.2829   0.1650  16.2214   H         1 RES1   0.0000
    50 C20      5.6484   1.6054  16.2608   C.ar      1 RES1   0.0000
    51 H22      6.2427   1.1809  16.8373   H         1 RES1   0.0000
    52 C21      5.9145   2.8493  15.7710   C.ar      1 RES1   0.0000
    53 H23      6.6848   3.3007  16.0333   H         1 RES1   0.0000
    54 C22      5.0431   3.4299  14.8911   C.ar      1 RES1   0.0000
    55 H24      5.2456   4.2808  14.5776   H         1 RES1   0.0000
    56 B1       0.0367   7.7551   7.0590   B         2 RES2  -1.0000
    57 C23     -1.2244   6.8757   7.6644   C.ar      2 RES2   0.0000
    58 C24     -1.6698   5.6998   7.0073   C.ar      2 RES2   0.0000
    59 H25     -1.2756   5.4686   6.1970   H         2 RES2   0.0000
    60 C25     -2.6552   4.8854   7.5087   C.ar      2 RES2   0.0000
    61 H26     -2.8838   4.1076   7.0547   H         2 RES2   0.0000
    62 C26     -3.3116   5.2070   8.6787   C.ar      2 RES2   0.0000
    63 H27     -3.9744   4.6520   9.0211   H         2 RES2   0.0000
    64 C27     -2.9640   6.3598   9.3208   C.ar      2 RES2   0.0000
    65 H28     -3.4197   6.6068  10.0939   H         2 RES2   0.0000
    66 C28     -1.9464   7.1704   8.8449   C.ar      2 RES2   0.0000
    67 H29     -1.7295   7.9389   9.3212   H         2 RES2   0.0000
    68 C29     -0.2264   8.0019   5.4769   C.ar      2 RES2   0.0000
    69 C30     -1.4978   8.3032   4.9699   C.ar      2 RES2   0.0000
    70 H30     -2.2163   8.3431   5.5587   H         2 RES2   0.0000
    71 C31     -1.7270   8.5484   3.5990   C.ar      2 RES2   0.0000
    72 H31     -2.5751   8.7830   3.2989   H         2 RES2   0.0000
    73 C32     -0.6869   8.4360   2.7189   C.ar      2 RES2   0.0000
    74 H32     -0.8336   8.5685   1.8096   H         2 RES2   0.0000
    75 C33      0.5549   8.1325   3.1630   C.ar      2 RES2   0.0000
    76 H33      1.2563   8.0557   2.5576   H         2 RES2   0.0000
    77 C34      0.7872   7.9357   4.5175   C.ar      2 RES2   0.0000
    78 H34      1.6538   7.7519   4.7972   H         2 RES2   0.0000
    79 C35      0.0823   9.1860   7.8738   C.ar      2 RES2   0.0000
    80 C36     -0.3220  10.4054   7.3105   C.ar      2 RES2   0.0000
    81 H35     -0.5922  10.4024   6.4209   H         2 RES2   0.0000
    82 C37     -0.3464  11.6272   7.9965   C.ar      2 RES2   0.0000
    83 H36     -0.6320  12.4025   7.5699   H         2 RES2   0.0000
    84 C38      0.0598  11.6583   9.3087   C.ar      2 RES2   0.0000
    85 H37      0.0584  12.4603   9.7803   H         2 RES2   0.0000
    86 C39      0.4698  10.4939   9.9199   C.ar      2 RES2   0.0000
    87 H38      0.7424  10.5096  10.8083   H         2 RES2   0.0000
    88 C40      0.4801   9.2840   9.2083   C.ar      2 RES2   0.0000
    89 H39      0.7645   8.5135   9.6460   H         2 RES2   0.0000
    90 C41      1.4571   6.9421   7.2859   C.ar      2 RES2   0.0000
    91 C42      1.5981   5.5715   7.0908   C.ar      2 RES2   0.0000
    92 H40      0.8428   5.0795   6.8621   H         2 RES2   0.0000
    93 C43      2.8069   4.8970   7.2198   C.ar      2 RES2   0.0000
    94 H41      2.8416   3.9770   7.0906   H         2 RES2   0.0000
    95 C44      3.9554   5.5943   7.5412   C.ar      2 RES2   0.0000
    96 H42      4.7738   5.1579   7.6146   H         2 RES2   0.0000
    97 C45      3.8622   6.9288   7.7450   C.ar      2 RES2   0.0000
    98 H43      4.6232   7.4096   7.9819   H         2 RES2   0.0000
    99 C46      2.6607   7.5883   7.6079   C.ar      2 RES2   0.0000
   100 H44      2.6469   8.5094   7.7356   H         2 RES2   0.0000
   101 B2       6.6245  10.2955  13.5910   B         3 RES3  -1.0000
   102 C47      7.0109   8.6964  13.7744   C.ar      3 RES3   0.0000
   103 C48      7.9216   8.0683  12.8943   C.ar      3 RES3   0.0000
   104 H45      8.2569   8.5616  12.1812   H         3 RES3   0.0000
   105 C49      8.3361   6.7683  13.0394   C.ar      3 RES3   0.0000
   106 H46      8.9264   6.4047  12.4186   H         3 RES3   0.0000
   107 C50      7.9008   6.0073  14.0710   C.ar      3 RES3   0.0000
   108 H47      8.2109   5.1373  14.1789   H         3 RES3   0.0000
   109 C51      6.9867   6.5432  14.9612   C.ar      3 RES3   0.0000
   110 H48      6.6532   6.0212  15.6548   H         3 RES3   0.0000
   111 C52      6.5658   7.8590  14.8185   C.ar      3 RES3   0.0000
   112 H49      5.9646   8.2028  15.4398   H         3 RES3   0.0000
   113 C53      7.8262  11.1861  14.2839   C.ar      3 RES3   0.0000
   114 C54      9.1008  10.7331  14.5254   C.ar      3 RES3   0.0000
   115 H50      9.3017   9.8484  14.3222   H         3 RES3   0.0000
   116 C55     10.0984  11.5288  15.0571   C.ar      3 RES3   0.0000
   117 H51     10.9439  11.1681  15.1957   H         3 RES3   0.0000
   118 C56      9.8707  12.8088  15.3753   C.ar      3 RES3   0.0000
   119 H52     10.5442  13.3318  15.7466   H         3 RES3   0.0000
   120 C57      8.6250  13.3314  15.1413   C.ar      3 RES3   0.0000
   121 H53      8.4507  14.2240  15.3345   H         3 RES3   0.0000
   122 C58      7.6191  12.5199  14.6114   C.ar      3 RES3   0.0000
   123 H54      6.7772  12.8878  14.4723   H         3 RES3   0.0000
   124 C59      6.5624  10.6289  11.9949   C.ar      3 RES3   0.0000
   125 C60      7.2521  11.6674  11.3861   C.ar      3 RES3   0.0000
   126 H55      7.7509  12.2403  11.9214   H         3 RES3   0.0000
   127 C61      7.2334  11.8936  10.0184   C.ar      3 RES3   0.0000
   128 H56      7.7468  12.5785   9.6549   H         3 RES3   0.0000
   129 C62      6.4693  11.1173   9.2110   C.ar      3 RES3   0.0000
   130 H57      6.4408  11.2877   8.2977   H         3 RES3   0.0000
   131 C63      5.7472  10.0932   9.7299   C.ar      3 RES3   0.0000
   132 H58      5.2287   9.5555   9.1756   H         3 RES3   0.0000
   133 C64      5.7900   9.8506  11.1254   C.ar      3 RES3   0.0000
   134 H59      5.2871   9.1500  11.4757   H         3 RES3   0.0000
   135 C65      5.2129  10.6264  14.3554   C.ar      3 RES3   0.0000
   136 C66      5.1357  10.6662  15.7675   C.ar      3 RES3   0.0000
   137 H60      5.9134  10.5357  16.2595   H         3 RES3   0.0000
   138 C67      3.9455  10.8926  16.4487   C.ar      3 RES3   0.0000
   139 H61      3.9414  10.9124  17.3793   H         3 RES3   0.0000
   140 C68      2.7726  11.0886  15.7536   C.ar      3 RES3   0.0000
   141 H62      1.9742  11.2093  16.2125   H         3 RES3   0.0000
   142 C69      2.7851  11.1061  14.3883   C.ar      3 RES3   0.0000
   143 H63      2.0028  11.2670  13.9124   H         3 RES3   0.0000
   144 C70      3.9976  10.8786  13.7061   C.ar      3 RES3   0.0000
   145 H64      3.9910  10.8972  12.7769   H         3 RES3   0.0000
   146 O1       0.9914   8.2089  18.0259   O.3       4 RES4   0.0000
@<TRIPOS>BOND
     1     1     4    1
     2     2     3    1
     3     4    12    2
     4     5     1    1
     5     6     1    1
     6     7     8    1
     7     9     1    1
     8    10     1    1
     9    11     1    1
    10    12     2    1
    11    13    12    1
    12    14     2    1
    13    15    14    1
    14    16     4    1
    15    17     5    2
    16    18    17    1
    17    19     5    1
    18    20    19    1
    19    21    19    1
    20    22    19    1
    21    23    22    1
    22    24    22    1
    23    25     6   ar
    24    26    25   ar
    25    27    26    1
    26    28    26   ar
    27    29    28    1
    28    30    28   ar
    29    31    30    1
    30    32     6   ar
    31    33    32    1
    32    34     7    1
    33    35    34    1
    34    36     7    1
    35    37    36    1
    36    38     9    1
    37    39    10    2
    38    40    39    1
    39    41    10    1
    40    42    41    1
    41    43    41    1
    42    44    41    1
    43    45    44    1
    44    46    44    1
    45    47    11   ar
    46    48    47   ar
    47    49    48    1
    48    50    48   ar
    49    51    50    1
    50    52    50   ar
    51    53    52    1
    52    54    11   ar
    53    55    54    1
    54     9    34    2
    55    14    16    2
    56    16    17    1
    57    22    25    1
    58    30    32   ar
    59    36    38    2
    60    38    39    1
    61    44    47    1
    62    52    54   ar
    63    56    57    1
    64    57    58   ar
    65    58    59    1
    66    60    58   ar
    67    61    60    1
    68    62    60   ar
    69    63    62    1
    70    64    62   ar
    71    65    64    1
    72    66    57   ar
    73    67    66    1
    74    68    56    1
    75    69    68   ar
    76    70    69    1
    77    71    69   ar
    78    72    71    1
    79    73    71   ar
    80    74    73    1
    81    75    73   ar
    82    76    75    1
    83    77    68   ar
    84    78    77    1
    85    79    56    1
    86    80    79   ar
    87    81    80    1
    88    82    80   ar
    89    83    82    1
    90    84    82   ar
    91    85    84    1
    92    86    84   ar
    93    87    86    1
    94    88    79   ar
    95    89    88    1
    96    90    56    1
    97    91    90   ar
    98    92    91    1
    99    93    91   ar
   100    94    93    1
   101    95    93   ar
   102    96    95    1
   103    97    95   ar
   104    98    97    1
   105    99    90   ar
   106   100    99    1
   107    64    66   ar
   108    75    77   ar
   109    86    88   ar
   110    97    99   ar
   111   101   102    1
   112   102   103   ar
   113   103   104    1
   114   105   103   ar
   115   106   105    1
   116   107   105   ar
   117   108   107    1
   118   109   107   ar
   119   110   109    1
   120   111   102   ar
   121   112   111    1
   122   113   101    1
   123   114   113   ar
   124   115   114    1
   125   116   114   ar
   126   117   116    1
   127   118   116   ar
   128   119   118    1
   129   120   118   ar
   130   121   120    1
   131   122   113   ar
   132   123   122    1
   133   124   101    1
   134   125   124   ar
   135   126   125    1
   136   127   125   ar
   137   128   127    1
   138   129   127   ar
   139   130   129    1
   140   131   129   ar
   141   132   131    1
   142   133   124   ar
   143   134   133    1
   144   135   101    1
   145   136   135   ar
   146   137   136    1
   147   138   136   ar
   148   139   138    1
   149   140   138   ar
   150   141   140    1
   151   142   140   ar
   152   143   142    1
   153   144   135   ar
   154   145   144    1
   155   109   111   ar
   156   120   122   ar
   157   131   133   ar
   158   142   144   ar
@<TRIPOS>SUBSTRUCTURE
     1 RES1        1 GROUP             0 ****  ****    0  
     2 RES2       56 GROUP             0 ****  ****    0  
     3 RES3      101 GROUP             0 ****  ****    0  
     4 RES4      146 GROUP             0 ****  ****    0  
@<TRIPOS>CRYSIN
   19.7613   13.7470   22.6520   90.0000   98.6220   90.0000    14     1
