@<TRIPOS>MOLECULE
YAZTUS02
    75    82     1     0     0
SMALL
NO_CHARGES
****
Generated from the CSD

@<TRIPOS>ATOM
     1 Br1      6.3826   2.7127  11.7500   Br        1 RES1   0.0000
     2 Fe1      7.4047   7.4047   6.2855   Fe        1 RES1   0.0000
     3 S1       7.0070  12.0629   5.3552   S.2       1 RES1   0.0000
     4 N1       7.3173   5.2004   6.3270   N.2       1 RES1   0.0000
     5 N2       7.5473   6.7965   4.2440   N.ar      1 RES1   0.0000
     6 N3       7.3209   9.4021   5.8631   N.2       1 RES1   0.0000
     7 C1       7.6454   7.6080   3.2069   C.ar      1 RES1   0.0000
     8 H1       7.6240   8.5264   3.3577   H         1 RES1   0.0000
     9 C2       7.1764  10.4543   5.6720   C.1       1 RES1   0.0000
    10 C3       7.6972   4.9757   2.7191   C.ar      1 RES1   0.0000
    11 H2       7.7132   4.0555   2.5896   H         1 RES1   0.0000
    12 C4       7.7828   7.1532   1.8995   C.ar      1 RES1   0.0000
    13 H3       7.8505   7.7631   1.1993   H         1 RES1   0.0000
    14 C5       6.4844   1.0379   4.2880   C.ar      1 RES1   0.0000
    15 H4       5.7693   0.5921   3.8970   H         1 RES1   0.0000
    16 C6       7.8149   5.8335   1.6455   C.ar      1 RES1   0.0000
    17 H5       7.9112   5.5107   0.7781   H         1 RES1   0.0000
    18 C7       6.6967   3.4081  10.0430   C.ar      1 RES1   0.0000
    19 C8       8.6013   1.0344   5.2484   C.ar      1 RES1   0.0000
    20 H6       9.3539   0.5529   5.5074   H         1 RES1   0.0000
    21 C9       6.4541   2.4629   4.4602   C.ar      1 RES1   0.0000
    22 H7       5.7140   2.9426   4.1623   H         1 RES1   0.0000
    23 C10      7.4724   3.1138   5.0410   C.ar      1 RES1   0.0000
    24 C11      5.9138   3.9698   7.8619   C.ar      1 RES1   0.0000
    25 H8       5.2325   3.9752   7.2283   H         1 RES1   0.0000
    26 C12      7.1372   4.4799   7.5338   C.ar      1 RES1   0.0000
    27 C13      7.4350   4.6047   5.2031   C.2       1 RES1   0.0000
    28 C14      5.6641   3.4455   9.1203   C.ar      1 RES1   0.0000
    29 H9       4.8187   3.1245   9.3415   H         1 RES1   0.0000
    30 C15      8.1305   4.4407   8.4741   C.ar      1 RES1   0.0000
    31 H10      8.9669   4.7902   8.2679   H         1 RES1   0.0000
    32 C16      7.9147   3.8932   9.7174   C.ar      1 RES1   0.0000
    33 H11      8.6085   3.8575  10.3346   H         1 RES1   0.0000
    34 C17      7.5259   0.3923   4.6890   C.ar      1 RES1   0.0000
    35 H12      7.5491  -0.5332   4.5934   H         1 RES1   0.0000
    36 C18      8.5514   2.4219   5.4244   C.ar      1 RES1   0.0000
    37 H13      9.2719   2.8659   5.8078   H         1 RES1   0.0000
    38 C19      7.5545   5.5000   3.9938   C.ar      1 RES1   0.0000
    39 Br1E     2.7127   6.3826   0.8210   Br        1 RES1   0.0000
    40 S1E     12.0629   7.0070   7.2158   S.2       1 RES1   0.0000
    41 N1E      5.2004   7.3173   6.2440   N.2       1 RES1   0.0000
    42 N2E      6.7965   7.5473   8.3270   N.ar      1 RES1   0.0000
    43 N3E      9.4021   7.3209   6.7079   N.2       1 RES1   0.0000
    44 C1E      7.6080   7.6454   9.3641   C.ar      1 RES1   0.0000
    45 H1E      8.5264   7.6240   9.2133   H         1 RES1   0.0000
    46 C2E     10.4543   7.1764   6.8990   C.1       1 RES1   0.0000
    47 C3E      4.9757   7.6972   9.8519   C.ar      1 RES1   0.0000
    48 H2E      4.0555   7.7132   9.9814   H         1 RES1   0.0000
    49 C4E      7.1532   7.7828  10.6715   C.ar      1 RES1   0.0000
    50 H3E      7.7631   7.8505  11.3717   H         1 RES1   0.0000
    51 C5E      1.0379   6.4844   8.2830   C.ar      1 RES1   0.0000
    52 H4E      0.5921   5.7693   8.6740   H         1 RES1   0.0000
    53 C6E      5.8335   7.8149  10.9255   C.ar      1 RES1   0.0000
    54 H5E      5.5107   7.9112  11.7929   H         1 RES1   0.0000
    55 C7E      3.4081   6.6967   2.5280   C.ar      1 RES1   0.0000
    56 C8E      1.0344   8.6013   7.3226   C.ar      1 RES1   0.0000
    57 H6E      0.5529   9.3539   7.0636   H         1 RES1   0.0000
    58 C9E      2.4629   6.4541   8.1108   C.ar      1 RES1   0.0000
    59 H7E      2.9426   5.7140   8.4087   H         1 RES1   0.0000
    60 C10E     3.1138   7.4724   7.5300   C.ar      1 RES1   0.0000
    61 C11E     3.9698   5.9138   4.7091   C.ar      1 RES1   0.0000
    62 H8E      3.9752   5.2325   5.3427   H         1 RES1   0.0000
    63 C12E     4.4799   7.1372   5.0372   C.ar      1 RES1   0.0000
    64 C13E     4.6047   7.4350   7.3679   C.2       1 RES1   0.0000
    65 C14E     3.4455   5.6641   3.4507   C.ar      1 RES1   0.0000
    66 H9E      3.1245   4.8187   3.2295   H         1 RES1   0.0000
    67 C15E     4.4407   8.1305   4.0969   C.ar      1 RES1   0.0000
    68 H10E     4.7902   8.9669   4.3031   H         1 RES1   0.0000
    69 C16E     3.8932   7.9147   2.8536   C.ar      1 RES1   0.0000
    70 H11E     3.8575   8.6085   2.2364   H         1 RES1   0.0000
    71 C17E     0.3923   7.5259   7.8820   C.ar      1 RES1   0.0000
    72 H12E    -0.5332   7.5491   7.9776   H         1 RES1   0.0000
    73 C18E     2.4219   8.5514   7.1466   C.ar      1 RES1   0.0000
    74 H13E     2.8659   9.2719   6.7632   H         1 RES1   0.0000
    75 C19E     5.5000   7.5545   8.5772   C.ar      1 RES1   0.0000
@<TRIPOS>BOND
     1     1    18    1
     2     2     4    1
     3     3     9    2
     4     4    26    1
     5     5     2    1
     6     6     2    1
     7     7     5   ar
     8     8     7    1
     9     9     6    2
    10    10    11    1
    11    12     7   ar
    12    13    12    1
    13    14    15    1
    14    16    10   ar
    15    17    16    1
    16    18    28   ar
    17    19    20    1
    18    21    14   ar
    19    22    21    1
    20    23    21   ar
    21    24    25    1
    22    26    24   ar
    23    27     4    2
    24    28    24   ar
    25    29    28    1
    26    30    26   ar
    27    31    30    1
    28    32    18   ar
    29    33    32    1
    30    34    14   ar
    31    35    34    1
    32    36    19   ar
    33    37    36    1
    34    38     5   ar
    35    39    55    1
    36    40    46    2
    37    41     2    1
    38    42     2    1
    39    43     2    1
    40    44    42   ar
    41    45    44    1
    42    46    43    2
    43    47    48    1
    44    49    44   ar
    45    50    49    1
    46    51    52    1
    47    53    47   ar
    48    54    53    1
    49    55    65   ar
    50    56    57    1
    51    58    51   ar
    52    59    58    1
    53    60    58   ar
    54    61    62    1
    55    63    41    1
    56    64    41    2
    57    65    61   ar
    58    66    65    1
    59    67    63   ar
    60    68    67    1
    61    69    55   ar
    62    70    69    1
    63    71    51   ar
    64    72    71    1
    65    73    56   ar
    66    74    73    1
    67    75    42   ar
    68    10    38   ar
    69    12    16   ar
    70    19    34   ar
    71    23    27    1
    72    23    36   ar
    73    27    38    1
    74    30    32   ar
    75    47    75   ar
    76    49    53   ar
    77    56    71   ar
    78    60    64    1
    79    60    73   ar
    80    61    63   ar
    81    64    75    1
    82    67    69   ar
@<TRIPOS>SUBSTRUCTURE
     1 RES1        1 GROUP             0 ****  ****    0  
@<TRIPOS>CRYSIN
   17.8340   17.8340   12.5710   90.0000   90.0000   90.0000    92     1
