@<TRIPOS>MOLECULE
YAZTUS
    75    82     1     0     0
SMALL
NO_CHARGES
****
Generated from the CSD

@<TRIPOS>ATOM
     1 Br1      2.6722   6.2765   0.6970   Br        1 RES1   0.0000
     2 Fe1      7.2604   7.2604   6.1838   Fe        1 RES1   0.0000
     3 S1      11.9185   6.9700   7.0508   S.2       1 RES1   0.0000
     4 N1       6.7649   7.4581   8.1527   N.ar      1 RES1   0.0000
     5 N2       5.1943   7.2194   6.1183   N.2       1 RES1   0.0000
     6 N3       9.2232   7.2158   6.5388   N.2       1 RES1   0.0000
     7 C1       7.6032   7.5696   9.1632   C.ar      1 RES1   0.0000
     8 H1       8.5564   7.4953   8.9690   H         1 RES1   0.0000
     9 C2       7.1840   7.7323  10.4716   C.ar      1 RES1   0.0000
    10 H2       7.8968   7.7659  11.1667   H         1 RES1   0.0000
    11 C3       5.8700   7.7606  10.7487   C.ar      1 RES1   0.0000
    12 H3       5.6400   7.8013  11.6837   H         1 RES1   0.0000
    13 C4       4.9803   7.6368   9.7061   C.ar      1 RES1   0.0000
    14 H4       4.1155   7.6138   9.9238   H         1 RES1   0.0000
    15 C5       5.4561   7.4758   8.4199   C.ar      1 RES1   0.0000
    16 C6       4.5736   7.3485   7.2412   C.2       1 RES1   0.0000
    17 C7       3.0809   7.3927   7.3909   C.ar      1 RES1   0.0000
    18 C8       2.4035   6.3581   7.9796   C.ar      1 RES1   0.0000
    19 H5       2.9058   5.6241   8.3048   H         1 RES1   0.0000
    20 C9       0.9922   6.4341   8.1404   C.ar      1 RES1   0.0000
    21 H6       0.6049   5.7479   8.5200   H         1 RES1   0.0000
    22 C10      0.3484   7.4316   7.6939   C.ar      1 RES1   0.0000
    23 H7      -0.5076   7.5607   7.6778   H         1 RES1   0.0000
    24 C11      1.0205   8.5211   7.1188   C.ar      1 RES1   0.0000
    25 H8       0.6084   9.2727   6.7317   H         1 RES1   0.0000
    26 C12      2.4017   8.4769   6.9469   C.ar      1 RES1   0.0000
    27 H9       2.9182   9.2020   6.5066   H         1 RES1   0.0000
    28 C13      4.4851   7.0372   4.9075   C.ar      1 RES1   0.0000
    29 C14      3.9493   5.8169   4.5674   C.ar      1 RES1   0.0000
    30 H10      4.0412   5.1342   5.1474   H         1 RES1   0.0000
    31 C15      3.4240   5.5746   3.3170   C.ar      1 RES1   0.0000
    32 H11      3.1127   4.7699   3.0053   H         1 RES1   0.0000
    33 C16      3.3815   6.5986   2.4067   C.ar      1 RES1   0.0000
    34 C17      3.8679   7.8225   2.7184   C.ar      1 RES1   0.0000
    35 H12      3.8184   8.5670   2.0456   H         1 RES1   0.0000
    36 C18      4.4232   8.0400   3.9737   C.ar      1 RES1   0.0000
    37 H13      4.8389   8.9031   4.1481   H         1 RES1   0.0000
    38 C19     10.3109   7.1027   6.7317   C.1       1 RES1   0.0000
    39 Br1E     6.2765   2.6722  11.6706   Br        1 RES1   0.0000
    40 S1E      6.9700  11.9185   5.3168   S.2       1 RES1   0.0000
    41 N1E      7.4581   6.7649   4.2149   N.ar      1 RES1   0.0000
    42 N2E      7.2194   5.1943   6.2493   N.2       1 RES1   0.0000
    43 N3E      7.2158   9.2232   5.8288   N.2       1 RES1   0.0000
    44 C1E      7.5696   7.6032   3.2044   C.ar      1 RES1   0.0000
    45 H1E      7.4953   8.5564   3.3986   H         1 RES1   0.0000
    46 C2E      7.7323   7.1840   1.8960   C.ar      1 RES1   0.0000
    47 H2E      7.7659   7.8968   1.2009   H         1 RES1   0.0000
    48 C3E      7.7606   5.8700   1.6189   C.ar      1 RES1   0.0000
    49 H3E      7.8013   5.6400   0.6839   H         1 RES1   0.0000
    50 C4E      7.6368   4.9803   2.6615   C.ar      1 RES1   0.0000
    51 H4E      7.6138   4.1155   2.4438   H         1 RES1   0.0000
    52 C5E      7.4758   5.4561   3.9477   C.ar      1 RES1   0.0000
    53 C6E      7.3485   4.5736   5.1264   C.2       1 RES1   0.0000
    54 C7E      7.3927   3.0809   4.9767   C.ar      1 RES1   0.0000
    55 C8E      6.3581   2.4035   4.3880   C.ar      1 RES1   0.0000
    56 H5E      5.6241   2.9058   4.0628   H         1 RES1   0.0000
    57 C9E      6.4341   0.9922   4.2272   C.ar      1 RES1   0.0000
    58 H6E      5.7479   0.6049   3.8476   H         1 RES1   0.0000
    59 C10E     7.4316   0.3484   4.6737   C.ar      1 RES1   0.0000
    60 H7E      7.5607  -0.5076   4.6898   H         1 RES1   0.0000
    61 C11E     8.5211   1.0205   5.2488   C.ar      1 RES1   0.0000
    62 H8E      9.2727   0.6084   5.6359   H         1 RES1   0.0000
    63 C12E     8.4769   2.4017   5.4207   C.ar      1 RES1   0.0000
    64 H9E      9.2020   2.9182   5.8610   H         1 RES1   0.0000
    65 C13E     7.0372   4.4851   7.4601   C.ar      1 RES1   0.0000
    66 C14E     5.8169   3.9493   7.8002   C.ar      1 RES1   0.0000
    67 H10E     5.1342   4.0412   7.2202   H         1 RES1   0.0000
    68 C15E     5.5746   3.4240   9.0506   C.ar      1 RES1   0.0000
    69 H11E     4.7699   3.1127   9.3623   H         1 RES1   0.0000
    70 C16E     6.5986   3.3815   9.9609   C.ar      1 RES1   0.0000
    71 C17E     7.8225   3.8679   9.6492   C.ar      1 RES1   0.0000
    72 H12E     8.5670   3.8184  10.3220   H         1 RES1   0.0000
    73 C18E     8.0400   4.4232   8.3939   C.ar      1 RES1   0.0000
    74 H13E     8.9031   4.8389   8.2195   H         1 RES1   0.0000
    75 C19E     7.1027  10.3109   5.6359   C.1       1 RES1   0.0000
@<TRIPOS>BOND
     1     1    33    1
     2     2     4    1
     3     3    38    2
     4     4     7   ar
     5     5     2    1
     6     6     2    1
     7     7     8    1
     8     9     7   ar
     9    10     9    1
    10    11     9   ar
    11    12    11    1
    12    13    11   ar
    13    14    13    1
    14    15     4   ar
    15    16     5    2
    16    17    16    1
    17    18    17   ar
    18    19    18    1
    19    20    18   ar
    20    21    20    1
    21    22    20   ar
    22    23    22    1
    23    24    22   ar
    24    25    24    1
    25    26    17   ar
    26    27    26    1
    27    28     5    1
    28    29    28   ar
    29    30    29    1
    30    31    29   ar
    31    32    31    1
    32    33    31   ar
    33    34    33   ar
    34    35    34    1
    35    36    28   ar
    36    37    36    1
    37    38     6    2
    38    39    70    1
    39    40    75    2
    40    41     2    1
    41    42     2    1
    42    43     2    1
    43    44    41   ar
    44    45    44    1
    45    46    44   ar
    46    47    46    1
    47    48    46   ar
    48    49    48    1
    49    50    48   ar
    50    51    50    1
    51    52    41   ar
    52    53    42    2
    53    54    53    1
    54    55    54   ar
    55    56    55    1
    56    57    55   ar
    57    58    57    1
    58    59    57   ar
    59    60    59    1
    60    61    59   ar
    61    62    61    1
    62    63    54   ar
    63    64    63    1
    64    65    42    1
    65    66    65   ar
    66    67    66    1
    67    68    66   ar
    68    69    68    1
    69    70    68   ar
    70    71    70   ar
    71    72    71    1
    72    73    65   ar
    73    74    73    1
    74    75    43    2
    75    13    15   ar
    76    15    16    1
    77    24    26   ar
    78    34    36   ar
    79    50    52   ar
    80    52    53    1
    81    61    63   ar
    82    71    73   ar
@<TRIPOS>SUBSTRUCTURE
     1 RES1        1 GROUP             0 ****  ****    0  
@<TRIPOS>CRYSIN
   17.6859   17.6859   12.3676   90.0000   90.0000   90.0000    92     1
