@<TRIPOS>MOLECULE
YAZTUS01
    75    82     1     0     0
SMALL
NO_CHARGES
****
Generated from the CSD

@<TRIPOS>ATOM
     1 Br1      6.3231   2.6945  11.7169   Br        1 RES1   0.0000
     2 Fe1      7.3501   7.3501   6.2454   Fe        1 RES1   0.0000
     3 S1       6.9879  12.0148   5.3310   S.2       1 RES1   0.0000
     4 N1       7.2739   5.1921   6.2916   N.2       1 RES1   0.0000
     5 N2       7.5084   6.7730   4.2244   N.ar      1 RES1   0.0000
     6 N3       7.2792   9.3326   5.8382   N.2       1 RES1   0.0000
     7 C1       7.6061   7.5954   3.2064   C.ar      1 RES1   0.0000
     8 H1       7.5777   8.5102   3.3700   H         1 RES1   0.0000
     9 C2       7.1425  10.4108   5.6408   C.1       1 RES1   0.0000
    10 C3       7.6629   4.9701   2.6955   C.ar      1 RES1   0.0000
    11 H2       7.6771   4.0517   2.5481   H         1 RES1   0.0000
    12 C4       7.7500   7.1620   1.8961   C.ar      1 RES1   0.0000
    13 H3       7.8192   7.7802   1.2041   H         1 RES1   0.0000
    14 C5       6.4568   0.9983   4.2593   C.ar      1 RES1   0.0000
    15 H4       5.7552   0.5435   3.8509   H         1 RES1   0.0000
    16 C6       7.7890   5.8529   1.6338   C.ar      1 RES1   0.0000
    17 H5       7.8974   5.5438   0.7644   H         1 RES1   0.0000
    18 C7       6.6380   3.3892  10.0051   C.ar      1 RES1   0.0000
    19 C8       8.5599   1.0267   5.2473   C.ar      1 RES1   0.0000
    20 H6       9.3149   0.5542   5.5146   H         1 RES1   0.0000
    21 C9       6.3964   2.4122   4.4255   C.ar      1 RES1   0.0000
    22 H7       5.6486   2.8776   4.1294   H         1 RES1   0.0000
    23 C10      7.4213   3.0872   5.0100   C.ar      1 RES1   0.0000
    24 C11      5.8706   3.9505   7.8254   C.ar      1 RES1   0.0000
    25 H8       5.1956   3.9363   7.1847   H         1 RES1   0.0000
    26 C12      7.0945   4.4834   7.4982   C.ar      1 RES1   0.0000
    27 C13      7.3911   4.5793   5.1699   C.2       1 RES1   0.0000
    28 C14      5.6166   3.4336   9.0932   C.ar      1 RES1   0.0000
    29 H9       4.7693   3.1245   9.3168   H         1 RES1   0.0000
    30 C15      8.0839   4.4318   8.4437   C.ar      1 RES1   0.0000
    31 H10      8.9241   4.7782   8.2426   H         1 RES1   0.0000
    32 C16      7.8636   3.8776   9.6928   C.ar      1 RES1   0.0000
    33 H11      8.5528   3.8403  10.3148   H         1 RES1   0.0000
    34 C17      7.4871   0.3553   4.6803   C.ar      1 RES1   0.0000
    35 H12      7.5155  -0.5720   4.6028   H         1 RES1   0.0000
    36 C18      8.5067   2.3980   5.4185   C.ar      1 RES1   0.0000
    37 H13      9.2207   2.8456   5.8132   H         1 RES1   0.0000
    38 C19      7.5155   5.4710   3.9808   C.ar      1 RES1   0.0000
    39 Br1E     2.6945   6.3231   0.7738   Br        1 RES1   0.0000
    40 S1E     12.0148   6.9879   7.1597   S.2       1 RES1   0.0000
    41 N1E      5.1921   7.2739   6.1991   N.2       1 RES1   0.0000
    42 N2E      6.7730   7.5084   8.2663   N.ar      1 RES1   0.0000
    43 N3E      9.3326   7.2792   6.6525   N.2       1 RES1   0.0000
    44 C1E      7.5954   7.6061   9.2843   C.ar      1 RES1   0.0000
    45 H1E      8.5102   7.5777   9.1207   H         1 RES1   0.0000
    46 C2E     10.4108   7.1425   6.8499   C.1       1 RES1   0.0000
    47 C3E      4.9701   7.6629   9.7952   C.ar      1 RES1   0.0000
    48 H2E      4.0517   7.6771   9.9426   H         1 RES1   0.0000
    49 C4E      7.1620   7.7500  10.5946   C.ar      1 RES1   0.0000
    50 H3E      7.7802   7.8192  11.2866   H         1 RES1   0.0000
    51 C5E      0.9983   6.4568   8.2314   C.ar      1 RES1   0.0000
    52 H4E      0.5435   5.7552   8.6398   H         1 RES1   0.0000
    53 C6E      5.8529   7.7890  10.8569   C.ar      1 RES1   0.0000
    54 H5E      5.5438   7.8974  11.7263   H         1 RES1   0.0000
    55 C7E      3.3892   6.6380   2.4856   C.ar      1 RES1   0.0000
    56 C8E      1.0267   8.5599   7.2434   C.ar      1 RES1   0.0000
    57 H6E      0.5542   9.3149   6.9761   H         1 RES1   0.0000
    58 C9E      2.4122   6.3964   8.0652   C.ar      1 RES1   0.0000
    59 H7E      2.8776   5.6486   8.3613   H         1 RES1   0.0000
    60 C10E     3.0872   7.4213   7.4807   C.ar      1 RES1   0.0000
    61 C11E     3.9505   5.8706   4.6653   C.ar      1 RES1   0.0000
    62 H8E      3.9363   5.1956   5.3060   H         1 RES1   0.0000
    63 C12E     4.4834   7.0945   4.9925   C.ar      1 RES1   0.0000
    64 C13E     4.5793   7.3911   7.3208   C.2       1 RES1   0.0000
    65 C14E     3.4336   5.6166   3.3975   C.ar      1 RES1   0.0000
    66 H9E      3.1245   4.7693   3.1739   H         1 RES1   0.0000
    67 C15E     4.4318   8.0839   4.0470   C.ar      1 RES1   0.0000
    68 H10E     4.7782   8.9241   4.2481   H         1 RES1   0.0000
    69 C16E     3.8776   7.8636   2.7979   C.ar      1 RES1   0.0000
    70 H11E     3.8403   8.5528   2.1759   H         1 RES1   0.0000
    71 C17E     0.3553   7.4871   7.8104   C.ar      1 RES1   0.0000
    72 H12E    -0.5720   7.5155   7.8879   H         1 RES1   0.0000
    73 C18E     2.3980   8.5067   7.0722   C.ar      1 RES1   0.0000
    74 H13E     2.8456   9.2207   6.6775   H         1 RES1   0.0000
    75 C19E     5.4710   7.5155   8.5099   C.ar      1 RES1   0.0000
@<TRIPOS>BOND
     1     1    18    1
     2     2     4    1
     3     3     9    2
     4     4    26    1
     5     5     2    1
     6     6     2    1
     7     7     5   ar
     8     8     7    1
     9     9     6    2
    10    10    11    1
    11    12     7   ar
    12    13    12    1
    13    14    15    1
    14    16    10   ar
    15    17    16    1
    16    18    28   ar
    17    19    20    1
    18    21    14   ar
    19    22    21    1
    20    23    21   ar
    21    24    25    1
    22    26    24   ar
    23    27     4    2
    24    28    24   ar
    25    29    28    1
    26    30    26   ar
    27    31    30    1
    28    32    18   ar
    29    33    32    1
    30    34    14   ar
    31    35    34    1
    32    36    19   ar
    33    37    36    1
    34    38     5   ar
    35    39    55    1
    36    40    46    2
    37    41     2    1
    38    42     2    1
    39    43     2    1
    40    44    42   ar
    41    45    44    1
    42    46    43    2
    43    47    48    1
    44    49    44   ar
    45    50    49    1
    46    51    52    1
    47    53    47   ar
    48    54    53    1
    49    55    65   ar
    50    56    57    1
    51    58    51   ar
    52    59    58    1
    53    60    58   ar
    54    61    62    1
    55    63    41    1
    56    64    41    2
    57    65    61   ar
    58    66    65    1
    59    67    63   ar
    60    68    67    1
    61    69    55   ar
    62    70    69    1
    63    71    51   ar
    64    72    71    1
    65    73    56   ar
    66    74    73    1
    67    75    42   ar
    68    10    38   ar
    69    12    16   ar
    70    19    34   ar
    71    23    27    1
    72    23    36   ar
    73    27    38    1
    74    30    32   ar
    75    47    75   ar
    76    49    53   ar
    77    56    71   ar
    78    60    64    1
    79    60    73   ar
    80    61    63   ar
    81    64    75    1
    82    67    69   ar
@<TRIPOS>SUBSTRUCTURE
     1 RES1        1 GROUP             0 ****  ****    0  
@<TRIPOS>CRYSIN
   17.7629   17.7629   12.4907   90.0000   90.0000   90.0000    92     1
