@<TRIPOS>MOLECULE
YAZTOM01
    75    82     1     0     0
SMALL
NO_CHARGES
****
Generated from the CSD

@<TRIPOS>ATOM
     1 Fe1      7.3105   7.3105   6.2642   Fe        1 RES1   0.0000
     2 Cl1      2.6373   6.5783  11.5790   Cl        1 RES1   0.0000
     3 S1      11.9711   6.8911   5.4085   S.2       1 RES1   0.0000
     4 N1       6.7479   7.4319   4.2346   N.ar      1 RES1   0.0000
     5 N2       5.1679   7.2622   6.2905   N.2       1 RES1   0.0000
     6 N3       9.3124   7.2569   5.8833   N.2       1 RES1   0.0000
     7 C1       7.5821   7.5238   3.2023   C.ar      1 RES1   0.0000
     8 H1       8.5666   7.4584   3.4578   H         1 RES1   0.0000
     9 C2       7.1615   7.6458   1.9093   C.ar      1 RES1   0.0000
    10 H2       7.9073   7.7165   1.2190   H         1 RES1   0.0000
    11 C3       5.8536   7.6847   1.6500   C.ar      1 RES1   0.0000
    12 H3       5.6504   7.7677   0.6991   H         1 RES1   0.0000
    13 C4       4.9576   7.5804   2.7011   C.ar      1 RES1   0.0000
    14 H4       4.1004   7.5945   2.4656   H         1 RES1   0.0000
    15 C5       5.4401   7.4478   3.9753   C.ar      1 RES1   0.0000
    16 C6       4.5599   7.3542   5.1667   C.2       1 RES1   0.0000
    17 C7       3.0753   7.3983   4.9988   C.ar      1 RES1   0.0000
    18 C8       2.3860   8.5136   5.3596   C.ar      1 RES1   0.0000
    19 H5       2.8773   9.2329   5.8219   H         1 RES1   0.0000
    20 C9       1.0074   8.5631   5.1880   C.ar      1 RES1   0.0000
    21 H6       0.5797   9.3142   5.5576   H         1 RES1   0.0000
    22 C10      0.3659   7.4726   4.6656   C.ar      1 RES1   0.0000
    23 H7      -0.5550   7.5291   4.6806   H         1 RES1   0.0000
    24 C11      1.0304   6.4068   4.2885   C.ar      1 RES1   0.0000
    25 H8       0.5815   5.6963   3.9176   H         1 RES1   0.0000
    26 C12      2.4037   6.3450   4.4538   C.ar      1 RES1   0.0000
    27 H9       2.8773   5.5921   4.1557   H         1 RES1   0.0000
    28 C13      4.4362   7.1297   7.5183   C.ar      1 RES1   0.0000
    29 C14      4.3496   8.1672   8.3890   C.ar      1 RES1   0.0000
    30 H10      4.7384   8.9766   8.2299   H         1 RES1   0.0000
    31 C15      3.7911   8.0116   9.6394   C.ar      1 RES1   0.0000
    32 H11      3.7151   8.7009  10.3447   H         1 RES1   0.0000
    33 C16      3.3174   6.7886  10.0064   C.ar      1 RES1   0.0000
    34 C17      3.3916   5.7334   9.1520   C.ar      1 RES1   0.0000
    35 H12      3.0647   4.8515   9.5241   H         1 RES1   0.0000
    36 C18      3.9501   5.9120   7.9042   C.ar      1 RES1   0.0000
    37 H13      4.0367   5.1202   7.3805   H         1 RES1   0.0000
    38 C19     10.4135   7.0855   5.6967   C.1       1 RES1   0.0000
    39 Cl1E     6.5783   2.6373   0.9494   Cl        1 RES1   0.0000
    40 S1E      6.8911  11.9711   7.1199   S.2       1 RES1   0.0000
    41 N1E      7.4319   6.7479   8.2938   N.ar      1 RES1   0.0000
    42 N2E      7.2622   5.1679   6.2379   N.2       1 RES1   0.0000
    43 N3E      7.2569   9.3124   6.6451   N.2       1 RES1   0.0000
    44 C1E      7.5238   7.5821   9.3261   C.ar      1 RES1   0.0000
    45 H1E      7.4584   8.5666   9.0706   H         1 RES1   0.0000
    46 C2E      7.6458   7.1615  10.6191   C.ar      1 RES1   0.0000
    47 H2E      7.7165   7.9073  11.3094   H         1 RES1   0.0000
    48 C3E      7.6847   5.8536  10.8784   C.ar      1 RES1   0.0000
    49 H3E      7.7677   5.6504  11.8293   H         1 RES1   0.0000
    50 C4E      7.5804   4.9576   9.8273   C.ar      1 RES1   0.0000
    51 H4E      7.5945   4.1004  10.0628   H         1 RES1   0.0000
    52 C5E      7.4478   5.4401   8.5531   C.ar      1 RES1   0.0000
    53 C6E      7.3542   4.5599   7.3617   C.2       1 RES1   0.0000
    54 C7E      7.3983   3.0753   7.5296   C.ar      1 RES1   0.0000
    55 C8E      8.5136   2.3860   7.1688   C.ar      1 RES1   0.0000
    56 H5E      9.2329   2.8773   6.7065   H         1 RES1   0.0000
    57 C9E      8.5631   1.0074   7.3404   C.ar      1 RES1   0.0000
    58 H6E      9.3142   0.5797   6.9708   H         1 RES1   0.0000
    59 C10E     7.4726   0.3659   7.8628   C.ar      1 RES1   0.0000
    60 H7E      7.5291  -0.5550   7.8478   H         1 RES1   0.0000
    61 C11E     6.4068   1.0304   8.2399   C.ar      1 RES1   0.0000
    62 H8E      5.6963   0.5815   8.6108   H         1 RES1   0.0000
    63 C12E     6.3450   2.4037   8.0746   C.ar      1 RES1   0.0000
    64 H9E      5.5921   2.8773   8.3727   H         1 RES1   0.0000
    65 C13E     7.1297   4.4362   5.0101   C.ar      1 RES1   0.0000
    66 C14E     8.1672   4.3496   4.1394   C.ar      1 RES1   0.0000
    67 H10E     8.9766   4.7384   4.2985   H         1 RES1   0.0000
    68 C15E     8.0116   3.7911   2.8890   C.ar      1 RES1   0.0000
    69 H11E     8.7009   3.7151   2.1837   H         1 RES1   0.0000
    70 C16E     6.7886   3.3174   2.5220   C.ar      1 RES1   0.0000
    71 C17E     5.7334   3.3916   3.3764   C.ar      1 RES1   0.0000
    72 H12E     4.8515   3.0647   3.0043   H         1 RES1   0.0000
    73 C18E     5.9120   3.9501   4.6242   C.ar      1 RES1   0.0000
    74 H13E     5.1202   4.0367   5.1479   H         1 RES1   0.0000
    75 C19E     7.0855  10.4135   6.8317   C.1       1 RES1   0.0000
@<TRIPOS>BOND
     1     1     4    1
     2     2    33    1
     3     3    38    2
     4     4     7   ar
     5     5     1    1
     6     6     1    1
     7     7     8    1
     8     9     7   ar
     9    10     9    1
    10    11     9   ar
    11    12    11    1
    12    13    11   ar
    13    14    13    1
    14    15     4   ar
    15    16     5    2
    16    17    16    1
    17    18    17   ar
    18    19    18    1
    19    20    18   ar
    20    21    20    1
    21    22    20   ar
    22    23    22    1
    23    24    22   ar
    24    25    24    1
    25    26    17   ar
    26    27    26    1
    27    28     5    1
    28    29    28   ar
    29    30    29    1
    30    31    29   ar
    31    32    31    1
    32    33    31   ar
    33    34    33   ar
    34    35    34    1
    35    36    28   ar
    36    37    36    1
    37    38     6    2
    38    39    70    1
    39    40    75    2
    40    41     1    1
    41    42     1    1
    42    43     1    1
    43    44    41   ar
    44    45    44    1
    45    46    44   ar
    46    47    46    1
    47    48    46   ar
    48    49    48    1
    49    50    48   ar
    50    51    50    1
    51    52    41   ar
    52    53    42    2
    53    54    53    1
    54    55    54   ar
    55    56    55    1
    56    57    55   ar
    57    58    57    1
    58    59    57   ar
    59    60    59    1
    60    61    59   ar
    61    62    61    1
    62    63    54   ar
    63    64    63    1
    64    65    42    1
    65    66    65   ar
    66    67    66    1
    67    68    66   ar
    68    69    68    1
    69    70    68   ar
    70    71    70   ar
    71    72    71    1
    72    73    65   ar
    73    74    73    1
    74    75    43    2
    75    13    15   ar
    76    15    16    1
    77    24    26   ar
    78    34    36   ar
    79    50    52   ar
    80    52    53    1
    81    61    63   ar
    82    71    73   ar
@<TRIPOS>SUBSTRUCTURE
     1 RES1        1 GROUP             0 ****  ****    0  
@<TRIPOS>CRYSIN
   17.6740   17.6740   12.5284   90.0000   90.0000   90.0000    96     1
