@<TRIPOS>MOLECULE
YAZTOM
    75    82     1     0     0
SMALL
NO_CHARGES
****
Generated from the CSD

@<TRIPOS>ATOM
     1 Fe1      7.3738   7.3738   6.2852   Fe        1 RES1   0.0000
     2 Cl1      2.6546   6.6035  11.5848   Cl        1 RES1   0.0000
     3 S1      12.0280   6.9125   5.3813   S.2       1 RES1   0.0000
     4 N1       6.7580   7.4931   4.2274   N.ar      1 RES1   0.0000
     5 N2       5.1742   7.3102   6.3027   N.2       1 RES1   0.0000
     6 N3       9.4001   7.3102   5.8653   N.2       1 RES1   0.0000
     7 C1       7.5854   7.5819   3.1979   C.ar      1 RES1   0.0000
     8 H1       8.6064   7.4931   3.4694   H         1 RES1   0.0000
     9 C2       7.1575   7.6902   1.9082   C.ar      1 RES1   0.0000
    10 H2       7.9441   7.7524   1.2231   H         1 RES1   0.0000
    11 C3       5.8489   7.7328   1.6693   C.ar      1 RES1   0.0000
    12 H3       5.6767   7.8038   0.7014   H         1 RES1   0.0000
    13 C4       4.9788   7.6050   2.7190   C.ar      1 RES1   0.0000
    14 H4       4.1194   7.6298   2.4738   H         1 RES1   0.0000
    15 C5       5.4512   7.4807   3.9848   C.ar      1 RES1   0.0000
    16 C6       4.5758   7.4008   5.1802   C.2       1 RES1   0.0000
    17 C7       3.0878   7.4398   5.0143   C.ar      1 RES1   0.0000
    18 C8       2.4024   8.5301   5.3637   C.ar      1 RES1   0.0000
    19 H5       2.8907   9.2758   5.8414   H         1 RES1   0.0000
    20 C9       1.0139   8.5922   5.1677   C.ar      1 RES1   0.0000
    21 H6       0.5824   9.3575   5.5762   H         1 RES1   0.0000
    22 C10      0.3729   7.4665   4.6560   C.ar      1 RES1   0.0000
    23 H7      -0.5575   7.5641   4.6963   H         1 RES1   0.0000
    24 C11      1.0157   6.4650   4.2852   C.ar      1 RES1   0.0000
    25 H8       0.5842   5.7228   3.9307   H         1 RES1   0.0000
    26 C12      2.4113   6.3887   4.4788   C.ar      1 RES1   0.0000
    27 H9       2.8907   5.6181   4.1696   H         1 RES1   0.0000
    28 C13      4.4568   7.1593   7.5120   C.ar      1 RES1   0.0000
    29 C14      4.3645   8.1980   8.4120   C.ar      1 RES1   0.0000
    30 H10      4.7604   9.0184   8.2574   H         1 RES1   0.0000
    31 C15      3.8140   8.0382   9.6653   C.ar      1 RES1   0.0000
    32 H11      3.7324   8.7414  10.3793   H         1 RES1   0.0000
    33 C16      3.3524   6.8326  10.0236   C.ar      1 RES1   0.0000
    34 C17      3.4056   5.7690   9.1688   C.ar      1 RES1   0.0000
    35 H12      3.0789   4.8741   9.5559   H         1 RES1   0.0000
    36 C18      3.9579   5.9554   7.8979   C.ar      1 RES1   0.0000
    37 H13      4.0555   5.1440   7.4052   H         1 RES1   0.0000
    38 C19     10.4833   7.1256   5.6705   C.1       1 RES1   0.0000
    39 Cl1E     6.6035   2.6546   0.9855   Cl        1 RES1   0.0000
    40 S1E      6.9125  12.0280   7.1890   S.2       1 RES1   0.0000
    41 N1E      7.4931   6.7580   8.3429   N.ar      1 RES1   0.0000
    42 N2E      7.3102   5.1742   6.2676   N.2       1 RES1   0.0000
    43 N3E      7.3102   9.4001   6.7050   N.2       1 RES1   0.0000
    44 C1E      7.5819   7.5854   9.3724   C.ar      1 RES1   0.0000
    45 H1E      7.4931   8.6064   9.1009   H         1 RES1   0.0000
    46 C2E      7.6902   7.1575  10.6621   C.ar      1 RES1   0.0000
    47 H2E      7.7524   7.9441  11.3472   H         1 RES1   0.0000
    48 C3E      7.7328   5.8489  10.9010   C.ar      1 RES1   0.0000
    49 H3E      7.8038   5.6767  11.8689   H         1 RES1   0.0000
    50 C4E      7.6050   4.9788   9.8513   C.ar      1 RES1   0.0000
    51 H4E      7.6298   4.1194  10.0965   H         1 RES1   0.0000
    52 C5E      7.4807   5.4512   8.5855   C.ar      1 RES1   0.0000
    53 C6E      7.4008   4.5758   7.3901   C.2       1 RES1   0.0000
    54 C7E      7.4398   3.0878   7.5560   C.ar      1 RES1   0.0000
    55 C8E      8.5301   2.4024   7.2066   C.ar      1 RES1   0.0000
    56 H5E      9.2758   2.8907   6.7289   H         1 RES1   0.0000
    57 C9E      8.5922   1.0139   7.4026   C.ar      1 RES1   0.0000
    58 H6E      9.3575   0.5824   6.9941   H         1 RES1   0.0000
    59 C10E     7.4665   0.3729   7.9143   C.ar      1 RES1   0.0000
    60 H7E      7.5641  -0.5575   7.8740   H         1 RES1   0.0000
    61 C11E     6.4650   1.0157   8.2851   C.ar      1 RES1   0.0000
    62 H8E      5.7228   0.5842   8.6396   H         1 RES1   0.0000
    63 C12E     6.3887   2.4113   8.0915   C.ar      1 RES1   0.0000
    64 H9E      5.6181   2.8907   8.4007   H         1 RES1   0.0000
    65 C13E     7.1593   4.4568   5.0583   C.ar      1 RES1   0.0000
    66 C14E     8.1980   4.3645   4.1583   C.ar      1 RES1   0.0000
    67 H10E     9.0184   4.7604   4.3129   H         1 RES1   0.0000
    68 C15E     8.0382   3.8140   2.9050   C.ar      1 RES1   0.0000
    69 H11E     8.7414   3.7324   2.1910   H         1 RES1   0.0000
    70 C16E     6.8326   3.3524   2.5467   C.ar      1 RES1   0.0000
    71 C17E     5.7690   3.4056   3.4015   C.ar      1 RES1   0.0000
    72 H12E     4.8741   3.0789   3.0144   H         1 RES1   0.0000
    73 C18E     5.9554   3.9579   4.6724   C.ar      1 RES1   0.0000
    74 H13E     5.1440   4.0555   5.1651   H         1 RES1   0.0000
    75 C19E     7.1256  10.4833   6.8998   C.1       1 RES1   0.0000
@<TRIPOS>BOND
     1     1     4    1
     2     2    33    1
     3     3    38    2
     4     4     7   ar
     5     5     1    1
     6     6     1    1
     7     7     8    1
     8     9     7   ar
     9    10     9    1
    10    11     9   ar
    11    12    11    1
    12    13    11   ar
    13    14    13    1
    14    15     4   ar
    15    16     5    2
    16    17    16    1
    17    18    17   ar
    18    19    18    1
    19    20    18   ar
    20    21    20    1
    21    22    20   ar
    22    23    22    1
    23    24    22   ar
    24    25    24    1
    25    26    17   ar
    26    27    26    1
    27    28     5    1
    28    29    28   ar
    29    30    29    1
    30    31    29   ar
    31    32    31    1
    32    33    31   ar
    33    34    33   ar
    34    35    34    1
    35    36    28   ar
    36    37    36    1
    37    38     6    2
    38    39    70    1
    39    40    75    2
    40    41     1    1
    41    42     1    1
    42    43     1    1
    43    44    41   ar
    44    45    44    1
    45    46    44   ar
    46    47    46    1
    47    48    46   ar
    48    49    48    1
    49    50    48   ar
    50    51    50    1
    51    52    41   ar
    52    53    42    2
    53    54    53    1
    54    55    54   ar
    55    56    55    1
    56    57    55   ar
    57    58    57    1
    58    59    57   ar
    59    60    59    1
    60    61    59   ar
    61    62    61    1
    62    63    54   ar
    63    64    63    1
    64    65    42    1
    65    66    65   ar
    66    67    66    1
    67    68    66   ar
    68    69    68    1
    69    70    68   ar
    70    71    70   ar
    71    72    71    1
    72    73    65   ar
    73    74    73    1
    74    75    43    2
    75    13    15   ar
    76    15    16    1
    77    24    26   ar
    78    34    36   ar
    79    50    52   ar
    80    52    53    1
    81    61    63   ar
    82    71    73   ar
@<TRIPOS>SUBSTRUCTURE
     1 RES1        1 GROUP             0 ****  ****    0  
@<TRIPOS>CRYSIN
   17.7562   17.7562   12.5703   90.0000   90.0000   90.0000    96     1
