@<TRIPOS>MOLECULE
YAZVII03
    81    88     1     0     0
SMALL
NO_CHARGES
****
Generated from the CSD

@<TRIPOS>ATOM
     1 Fe1      7.0348   7.0348   0.0000   Fe        1 RES1   0.0000
     2 S1       6.9338  11.6752  -0.9723   S.2       1 RES1   0.0000
     3 N1       7.2750   6.6505  -1.9023   N.ar      1 RES1   0.0000
     4 N2       7.0303   5.0869   0.0703   N.2       1 RES1   0.0000
     5 N3       7.0299   8.9638  -0.2653   N.2       1 RES1   0.0000
     6 C1       7.4262   7.5418  -2.8982   C.ar      1 RES1   0.0000
     7 H1       7.4028   8.4491  -2.6959   H         1 RES1   0.0000
     8 C2       7.6157   7.1560  -4.2117   C.ar      1 RES1   0.0000
     9 H2       7.7348   7.7956  -4.8769   H         1 RES1   0.0000
    10 C3       7.6270   5.8280  -4.5255   C.ar      1 RES1   0.0000
    11 H3       7.7556   5.5534  -5.4039   H         1 RES1   0.0000
    12 C4       7.4445   4.8998  -3.5234   C.ar      1 RES1   0.0000
    13 H4       7.4323   3.9908  -3.7185   H         1 RES1   0.0000
    14 C5       7.2811   5.3401  -2.2355   C.ar      1 RES1   0.0000
    15 C6       7.1308   4.4693  -1.0711   C.2       1 RES1   0.0000
    16 C7       7.1525   2.9915  -1.2225   C.ar      1 RES1   0.0000
    17 C8       6.1131   2.3204  -1.8538   C.ar      1 RES1   0.0000
    18 H5       5.3865   2.7949  -2.1834   H         1 RES1   0.0000
    19 C9       6.1600   0.9421  -1.9931   C.ar      1 RES1   0.0000
    20 H6       5.4613   0.4971  -2.4148   H         1 RES1   0.0000
    21 C10      7.2394   0.2260  -1.5085   C.ar      1 RES1   0.0000
    22 H7       7.2585  -0.7005  -1.5860   H         1 RES1   0.0000
    23 C11      8.2910   0.8951  -0.9075   C.ar      1 RES1   0.0000
    24 H8       9.0297   0.4189  -0.6034   H         1 RES1   0.0000
    25 C12      8.2493   2.2683  -0.7585   C.ar      1 RES1   0.0000
    26 H9       8.9549   2.7115  -0.3453   H         1 RES1   0.0000
    27 C13      6.8240   4.3556   1.2746   C.ar      1 RES1   0.0000
    28 C14      5.5934   3.7471   1.5351   C.ar      1 RES1   0.0000
    29 H10      4.9381   3.7214   0.8772   H         1 RES1   0.0000
    30 C15      5.3552   3.1826   2.7747   C.ar      1 RES1   0.0000
    31 H11      4.5227   2.8036   2.9467   H         1 RES1   0.0000
    32 C16      6.3182   3.1669   3.7670   C.ar      1 RES1   0.0000
    33 C17      7.5540   3.7370   3.4713   C.ar      1 RES1   0.0000
    34 H12      8.2267   3.7162   4.1123   H         1 RES1   0.0000
    35 C18      7.8043   4.3315   2.2597   C.ar      1 RES1   0.0000
    36 H13      8.6334   4.7208   2.0961   H         1 RES1   0.0000
    37 C19      6.0453   2.5447   5.1107   C.3       1 RES1   0.0000
    38 H14      5.0997   2.5412   5.2767   H         1 RES1   0.0000
    39 H15      6.4885   3.0522   5.7941   H         1 RES1   0.0000
    40 H16      6.3738   1.6426   5.1192   H         1 RES1   0.0000
    41 C20      6.9780  10.0987  -0.5404   C.1       1 RES1   0.0000
    42 S1E     11.6752   6.9338   0.9723   S.2       1 RES1   0.0000
    43 N1E      6.6505   7.2750   1.9023   N.ar      1 RES1   0.0000
    44 N2E      5.0869   7.0303  -0.0703   N.2       1 RES1   0.0000
    45 N3E      8.9638   7.0299   0.2653   N.2       1 RES1   0.0000
    46 C1E      7.5418   7.4262   2.8982   C.ar      1 RES1   0.0000
    47 H1E      8.4491   7.4028   2.6959   H         1 RES1   0.0000
    48 C2E      7.1560   7.6157   4.2117   C.ar      1 RES1   0.0000
    49 H2E      7.7956   7.7348   4.8769   H         1 RES1   0.0000
    50 C3E      5.8280   7.6270   4.5255   C.ar      1 RES1   0.0000
    51 H3E      5.5534   7.7556   5.4039   H         1 RES1   0.0000
    52 C4E      4.8998   7.4445   3.5234   C.ar      1 RES1   0.0000
    53 H4E      3.9908   7.4323   3.7185   H         1 RES1   0.0000
    54 C5E      5.3401   7.2811   2.2355   C.ar      1 RES1   0.0000
    55 C6E      4.4693   7.1308   1.0711   C.2       1 RES1   0.0000
    56 C7E      2.9915   7.1525   1.2225   C.ar      1 RES1   0.0000
    57 C8E      2.3204   6.1131   1.8538   C.ar      1 RES1   0.0000
    58 H5E      2.7949   5.3865   2.1834   H         1 RES1   0.0000
    59 C9E      0.9421   6.1600   1.9931   C.ar      1 RES1   0.0000
    60 H6E      0.4971   5.4613   2.4148   H         1 RES1   0.0000
    61 C10E     0.2260   7.2394   1.5085   C.ar      1 RES1   0.0000
    62 H7E     -0.7005   7.2585   1.5860   H         1 RES1   0.0000
    63 C11E     0.8951   8.2910   0.9075   C.ar      1 RES1   0.0000
    64 H8E      0.4189   9.0297   0.6034   H         1 RES1   0.0000
    65 C12E     2.2683   8.2493   0.7585   C.ar      1 RES1   0.0000
    66 H9E      2.7115   8.9549   0.3453   H         1 RES1   0.0000
    67 C13E     4.3556   6.8240  -1.2746   C.ar      1 RES1   0.0000
    68 C14E     3.7471   5.5934  -1.5351   C.ar      1 RES1   0.0000
    69 H10E     3.7214   4.9381  -0.8772   H         1 RES1   0.0000
    70 C15E     3.1826   5.3552  -2.7747   C.ar      1 RES1   0.0000
    71 H11E     2.8036   4.5227  -2.9467   H         1 RES1   0.0000
    72 C16E     3.1669   6.3182  -3.7670   C.ar      1 RES1   0.0000
    73 C17E     3.7370   7.5540  -3.4713   C.ar      1 RES1   0.0000
    74 H12E     3.7162   8.2267  -4.1123   H         1 RES1   0.0000
    75 C18E     4.3315   7.8043  -2.2597   C.ar      1 RES1   0.0000
    76 H13E     4.7208   8.6334  -2.0961   H         1 RES1   0.0000
    77 C19E     2.5447   6.0453  -5.1107   C.3       1 RES1   0.0000
    78 H14E     2.5412   5.0997  -5.2767   H         1 RES1   0.0000
    79 H15E     3.0522   6.4885  -5.7941   H         1 RES1   0.0000
    80 H16E     1.6426   6.3738  -5.1192   H         1 RES1   0.0000
    81 C20E    10.0987   6.9780   0.5404   C.1       1 RES1   0.0000
@<TRIPOS>BOND
     1     1     3    1
     2     2    41    2
     3     3     6   ar
     4     4     1    1
     5     5     1    1
     6     6     7    1
     7     8     6   ar
     8     9     8    1
     9    10     8   ar
    10    11    10    1
    11    12    10   ar
    12    13    12    1
    13    14     3   ar
    14    15     4    2
    15    16    15    1
    16    17    16   ar
    17    18    17    1
    18    19    17   ar
    19    20    19    1
    20    21    19   ar
    21    22    21    1
    22    23    21   ar
    23    24    23    1
    24    25    16   ar
    25    26    25    1
    26    27     4    1
    27    28    27   ar
    28    29    28    1
    29    30    28   ar
    30    31    30    1
    31    32    30   ar
    32    33    32   ar
    33    34    33    1
    34    35    27   ar
    35    36    35    1
    36    37    32    1
    37    38    37    1
    38    39    37    1
    39    40    37    1
    40    41     5    2
    41    42    81    2
    42    43     1    1
    43    44     1    1
    44    45     1    1
    45    46    43   ar
    46    47    46    1
    47    48    46   ar
    48    49    48    1
    49    50    48   ar
    50    51    50    1
    51    52    50   ar
    52    53    52    1
    53    54    43   ar
    54    55    44    2
    55    56    55    1
    56    57    56   ar
    57    58    57    1
    58    59    57   ar
    59    60    59    1
    60    61    59   ar
    61    62    61    1
    62    63    61   ar
    63    64    63    1
    64    65    56   ar
    65    66    65    1
    66    67    44    1
    67    68    67   ar
    68    69    68    1
    69    70    68   ar
    70    71    70    1
    71    72    70   ar
    72    73    72   ar
    73    74    73    1
    74    75    67   ar
    75    76    75    1
    76    77    72    1
    77    78    77    1
    78    79    77    1
    79    80    77    1
    80    81    45    2
    81    12    14   ar
    82    14    15    1
    83    23    25   ar
    84    33    35   ar
    85    52    54   ar
    86    54    55    1
    87    63    65   ar
    88    73    75   ar
@<TRIPOS>SUBSTRUCTURE
     1 RES1        1 GROUP             0 ****  ****    0  
@<TRIPOS>CRYSIN
   17.3815   17.3815   12.1164   90.0000   90.0000   90.0000    92     1
