@<TRIPOS>MOLECULE
YAZVII
    81    88     1     0     0
SMALL
NO_CHARGES
****
Generated from the CSD

@<TRIPOS>ATOM
     1 Fe1      7.2765   7.2765   6.2703   Fe        1 RES1   0.0000
     2 S1       7.0238  11.9380   5.2370   S.2       1 RES1   0.0000
     3 N1       5.1320   7.2041   6.2540   N.2       1 RES1   0.0000
     4 N2       6.7263   7.4412   8.2944   N.ar      1 RES1   0.0000
     5 N3       7.2218   9.2834   5.8765   N.2       1 RES1   0.0000
     6 C1       3.2791   6.5051   2.5395   C.ar      1 RES1   0.0000
     7 C2       2.7022   6.2060   1.1562   C.3       1 RES1   0.0000
     8 H1       3.3853   5.8202   0.6019   H         1 RES1   0.0000
     9 H2       2.3890   7.0200   0.7562   H         1 RES1   0.0000
    10 H3       1.9713   5.5884   1.2403   H         1 RES1   0.0000
    11 C3       3.2932   5.5460   3.5089   C.ar      1 RES1   0.0000
    12 H4       2.9322   4.7089   3.3233   H         1 RES1   0.0000
    13 C4       3.8100   7.7173   2.8567   C.ar      1 RES1   0.0000
    14 H5       3.7763   8.4021   2.2285   H         1 RES1   0.0000
    15 C5       7.1244  10.3788   5.6270   C.1       1 RES1   0.0000
    16 C6       0.3415   7.4217   7.9232   C.ar      1 RES1   0.0000
    17 H6      -0.5822   7.4501   8.0235   H         1 RES1   0.0000
    18 C7       3.0632   7.3368   7.5745   C.ar      1 RES1   0.0000
    19 C8       4.3922   6.9935   5.0551   C.ar      1 RES1   0.0000
    20 C9       4.5337   7.3103   7.3827   C.2       1 RES1   0.0000
    21 C10      5.4221   7.4642   8.5652   C.ar      1 RES1   0.0000
    22 C11      7.5792   7.5739   9.3139   C.ar      1 RES1   0.0000
    23 H7       8.4924   7.5350   9.1421   H         1 RES1   0.0000
    24 C12      3.8383   5.7831   4.7679   C.ar      1 RES1   0.0000
    25 H8       3.8224   5.1142   5.4138   H         1 RES1   0.0000
    26 C13      4.3957   7.9668   4.0807   C.ar      1 RES1   0.0000
    27 H9       4.7939   8.7897   4.2475   H         1 RES1   0.0000
    28 C14      1.0317   6.3564   8.3332   C.ar      1 RES1   0.0000
    29 H10      0.5822   5.6486   8.7383   H         1 RES1   0.0000
    30 C15      4.9496   7.6412   9.8268   C.ar      1 RES1   0.0000
    31 H11      4.0347   7.6500   9.9873   H         1 RES1   0.0000
    32 C16      2.3518   8.4074   7.1820   C.ar      1 RES1   0.0000
    33 H12      2.7854   9.1276   6.7832   H         1 RES1   0.0000
    34 C17      0.9910   8.4481   7.3676   C.ar      1 RES1   0.0000
    35 H13      0.5150   9.2020   7.1030   H         1 RES1   0.0000
    36 C18      7.1581   7.7668  10.6081   C.ar      1 RES1   0.0000
    37 H14      7.7704   7.8677  11.3003   H         1 RES1   0.0000
    38 C19      5.8273   7.8040  10.8476   C.ar      1 RES1   0.0000
    39 H15      5.5141   7.9402  11.7129   H         1 RES1   0.0000
    40 C20      2.4049   6.2839   8.1639   C.ar      1 RES1   0.0000
    41 H16      2.8738   5.5336   8.4461   H         1 RES1   0.0000
    42 S1E     11.9380   7.0238   7.3036   S.2       1 RES1   0.0000
    43 N1E      7.2041   5.1320   6.2866   N.2       1 RES1   0.0000
    44 N2E      7.4412   6.7263   4.2462   N.ar      1 RES1   0.0000
    45 N3E      9.2834   7.2218   6.6641   N.2       1 RES1   0.0000
    46 C1E      6.5051   3.2791  10.0011   C.ar      1 RES1   0.0000
    47 C2E      6.2060   2.7022  11.3844   C.3       1 RES1   0.0000
    48 H1E      5.8202   3.3853  11.9387   H         1 RES1   0.0000
    49 H2E      7.0200   2.3890  11.7844   H         1 RES1   0.0000
    50 H3E      5.5884   1.9713  11.3003   H         1 RES1   0.0000
    51 C3E      5.5460   3.2932   9.0317   C.ar      1 RES1   0.0000
    52 H4E      4.7089   2.9322   9.2173   H         1 RES1   0.0000
    53 C4E      7.7173   3.8100   9.6839   C.ar      1 RES1   0.0000
    54 H5E      8.4021   3.7763  10.3121   H         1 RES1   0.0000
    55 C5E     10.3788   7.1244   6.9136   C.1       1 RES1   0.0000
    56 C6E      7.4217   0.3415   4.6174   C.ar      1 RES1   0.0000
    57 H6E      7.4501  -0.5822   4.5171   H         1 RES1   0.0000
    58 C7E      7.3368   3.0632   4.9661   C.ar      1 RES1   0.0000
    59 C8E      6.9935   4.3922   7.4855   C.ar      1 RES1   0.0000
    60 C9E      7.3103   4.5337   5.1579   C.2       1 RES1   0.0000
    61 C10E     7.4642   5.4221   3.9754   C.ar      1 RES1   0.0000
    62 C11E     7.5739   7.5792   3.2267   C.ar      1 RES1   0.0000
    63 H7E      7.5350   8.4924   3.3985   H         1 RES1   0.0000
    64 C12E     5.7831   3.8383   7.7727   C.ar      1 RES1   0.0000
    65 H8E      5.1142   3.8224   7.1268   H         1 RES1   0.0000
    66 C13E     7.9668   4.3957   8.4599   C.ar      1 RES1   0.0000
    67 H9E      8.7897   4.7939   8.2931   H         1 RES1   0.0000
    68 C14E     6.3564   1.0317   4.2074   C.ar      1 RES1   0.0000
    69 H10E     5.6486   0.5822   3.8023   H         1 RES1   0.0000
    70 C15E     7.6412   4.9496   2.7138   C.ar      1 RES1   0.0000
    71 H11E     7.6500   4.0347   2.5533   H         1 RES1   0.0000
    72 C16E     8.4074   2.3518   5.3586   C.ar      1 RES1   0.0000
    73 H12E     9.1276   2.7854   5.7574   H         1 RES1   0.0000
    74 C17E     8.4481   0.9910   5.1730   C.ar      1 RES1   0.0000
    75 H13E     9.2020   0.5150   5.4376   H         1 RES1   0.0000
    76 C18E     7.7668   7.1581   1.9325   C.ar      1 RES1   0.0000
    77 H14E     7.8677   7.7704   1.2403   H         1 RES1   0.0000
    78 C19E     7.8040   5.8273   1.6930   C.ar      1 RES1   0.0000
    79 H15E     7.9402   5.5141   0.8277   H         1 RES1   0.0000
    80 C20E     6.2839   2.4049   4.3767   C.ar      1 RES1   0.0000
    81 H16E     5.5336   2.8738   4.0945   H         1 RES1   0.0000
@<TRIPOS>BOND
     1     1     3    1
     2     2    15    2
     3     3    19    1
     4     4     1    1
     5     5     1    1
     6     6     7    1
     7     7     8    1
     8     9     7    1
     9    10     7    1
    10    11     6   ar
    11    12    11    1
    12    13     6   ar
    13    14    13    1
    14    15     5    2
    15    16    17    1
    16    18    20    1
    17    19    24   ar
    18    20     3    2
    19    21     4   ar
    20    22     4   ar
    21    23    22    1
    22    24    11   ar
    23    25    24    1
    24    26    13   ar
    25    27    26    1
    26    28    16   ar
    27    29    28    1
    28    30    21   ar
    29    31    30    1
    30    32    18   ar
    31    33    32    1
    32    34    16   ar
    33    35    34    1
    34    36    22   ar
    35    37    36    1
    36    38    30   ar
    37    39    38    1
    38    40    18   ar
    39    41    40    1
    40    42    55    2
    41    43     1    1
    42    44     1    1
    43    45     1    1
    44    46    47    1
    45    47    48    1
    46    49    47    1
    47    50    47    1
    48    51    46   ar
    49    52    51    1
    50    53    46   ar
    51    54    53    1
    52    55    45    2
    53    56    57    1
    54    58    60    1
    55    59    43    1
    56    60    43    2
    57    61    44   ar
    58    62    44   ar
    59    63    62    1
    60    64    51   ar
    61    65    64    1
    62    66    53   ar
    63    67    66    1
    64    68    56   ar
    65    69    68    1
    66    70    61   ar
    67    71    70    1
    68    72    58   ar
    69    73    72    1
    70    74    56   ar
    71    75    74    1
    72    76    62   ar
    73    77    76    1
    74    78    70   ar
    75    79    78    1
    76    80    58   ar
    77    81    80    1
    78    19    26   ar
    79    20    21    1
    80    28    40   ar
    81    32    34   ar
    82    36    38   ar
    83    59    64   ar
    84    59    66   ar
    85    60    61    1
    86    68    80   ar
    87    72    74   ar
    88    76    78   ar
@<TRIPOS>SUBSTRUCTURE
     1 RES1        1 GROUP             0 ****  ****    0  
@<TRIPOS>CRYSIN
   17.6961   17.6961   12.5406   90.0000   90.0000   90.0000    92     1
