@<TRIPOS>MOLECULE
YAZVII01
    81    88     1     0     0
SMALL
NO_CHARGES
****
Generated from the CSD

@<TRIPOS>ATOM
     1 Fe1      7.3025   7.3025   6.2890   Fe        1 RES1   0.0000
     2 S1      11.9621   7.0358   7.3367   S.2       1 RES1   0.0000
     3 N1       6.7320   7.4498   8.3216   N.ar      1 RES1   0.0000
     4 N2       5.1278   7.2212   6.2764   N.2       1 RES1   0.0000
     5 N3       9.3180   7.2353   6.7003   N.2       1 RES1   0.0000
     6 C1       7.5739   7.5916   9.3341   C.ar      1 RES1   0.0000
     7 H1       8.4885   7.5544   9.1618   H         1 RES1   0.0000
     8 C2       7.1520   7.7937  10.6435   C.ar      1 RES1   0.0000
     9 H2       7.7653   7.9036  11.3340   H         1 RES1   0.0000
    10 C3       5.8368   7.8238  10.8812   C.ar      1 RES1   0.0000
    11 H3       5.5284   7.9709  11.7453   H         1 RES1   0.0000
    12 C4       4.9506   7.6412   9.8712   C.ar      1 RES1   0.0000
    13 H4       4.0360   7.6288  10.0360   H         1 RES1   0.0000
    14 C5       5.4380   7.4764   8.6021   C.ar      1 RES1   0.0000
    15 C6       4.5482   7.3328   7.4185   C.2       1 RES1   0.0000
    16 C7       3.0735   7.3470   7.5984   C.ar      1 RES1   0.0000
    17 C8       2.4159   6.3012   8.1744   C.ar      1 RES1   0.0000
    18 H5       2.8856   5.5426   8.4361   H         1 RES1   0.0000
    19 C9       1.0422   6.3686   8.3669   C.ar      1 RES1   0.0000
    20 H6       0.5973   5.6649   8.7820   H         1 RES1   0.0000
    21 C10      0.3669   7.4303   7.9606   C.ar      1 RES1   0.0000
    22 H7      -0.5583   7.4516   8.0550   H         1 RES1   0.0000
    23 C11      1.0015   8.4690   7.4172   C.ar      1 RES1   0.0000
    24 H8       0.5247   9.2294   7.1757   H         1 RES1   0.0000
    25 C12      2.3681   8.4158   7.2135   C.ar      1 RES1   0.0000
    26 H9       2.8006   9.1301   6.8034   H         1 RES1   0.0000
    27 C13      4.4011   7.0102   5.0815   C.ar      1 RES1   0.0000
    28 C14      3.8375   5.7996   4.8048   C.ar      1 RES1   0.0000
    29 H10      3.8144   5.1367   5.4563   H         1 RES1   0.0000
    30 C15      3.2880   5.5515   3.5306   C.ar      1 RES1   0.0000
    31 H11      2.9193   4.7184   3.3470   H         1 RES1   0.0000
    32 C16      3.2862   6.5122   2.5596   C.ar      1 RES1   0.0000
    33 C17      3.8215   7.7192   2.8653   C.ar      1 RES1   0.0000
    34 H12      3.8056   8.3946   2.2263   H         1 RES1   0.0000
    35 C18      4.3940   7.9798   4.1067   C.ar      1 RES1   0.0000
    36 H13      4.7716   8.8111   4.2778   H         1 RES1   0.0000
    37 C19      2.7119   6.2144   1.1848   C.3       1 RES1   0.0000
    38 H14      3.4280   6.0921   0.5585   H         1 RES1   0.0000
    39 H15      2.1607   6.9482   0.9018   H         1 RES1   0.0000
    40 H16      2.1819   5.4150   1.2251   H         1 RES1   0.0000
    41 C20     10.4099   7.1414   6.9607   C.1       1 RES1   0.0000
    42 S1E      7.0358  11.9621   5.2413   S.2       1 RES1   0.0000
    43 N1E      7.4498   6.7320   4.2564   N.ar      1 RES1   0.0000
    44 N2E      7.2212   5.1278   6.3016   N.2       1 RES1   0.0000
    45 N3E      7.2353   9.3180   5.8777   N.2       1 RES1   0.0000
    46 C1E      7.5916   7.5739   3.2439   C.ar      1 RES1   0.0000
    47 H1E      7.5544   8.4885   3.4162   H         1 RES1   0.0000
    48 C2E      7.7937   7.1520   1.9345   C.ar      1 RES1   0.0000
    49 H2E      7.9036   7.7653   1.2440   H         1 RES1   0.0000
    50 C3E      7.8238   5.8368   1.6968   C.ar      1 RES1   0.0000
    51 H3E      7.9709   5.5284   0.8327   H         1 RES1   0.0000
    52 C4E      7.6412   4.9506   2.7068   C.ar      1 RES1   0.0000
    53 H4E      7.6288   4.0360   2.5420   H         1 RES1   0.0000
    54 C5E      7.4764   5.4380   3.9759   C.ar      1 RES1   0.0000
    55 C6E      7.3328   4.5482   5.1595   C.2       1 RES1   0.0000
    56 C7E      7.3470   3.0735   4.9796   C.ar      1 RES1   0.0000
    57 C8E      6.3012   2.4159   4.4036   C.ar      1 RES1   0.0000
    58 H5E      5.5426   2.8856   4.1419   H         1 RES1   0.0000
    59 C9E      6.3686   1.0422   4.2111   C.ar      1 RES1   0.0000
    60 H6E      5.6649   0.5973   3.7960   H         1 RES1   0.0000
    61 C10E     7.4303   0.3669   4.6174   C.ar      1 RES1   0.0000
    62 H7E      7.4516  -0.5583   4.5230   H         1 RES1   0.0000
    63 C11E     8.4690   1.0015   5.1608   C.ar      1 RES1   0.0000
    64 H8E      9.2294   0.5247   5.4023   H         1 RES1   0.0000
    65 C12E     8.4158   2.3681   5.3645   C.ar      1 RES1   0.0000
    66 H9E      9.1301   2.8006   5.7746   H         1 RES1   0.0000
    67 C13E     7.0102   4.4011   7.4965   C.ar      1 RES1   0.0000
    68 C14E     5.7996   3.8375   7.7732   C.ar      1 RES1   0.0000
    69 H10E     5.1367   3.8144   7.1217   H         1 RES1   0.0000
    70 C15E     5.5515   3.2880   9.0474   C.ar      1 RES1   0.0000
    71 H11E     4.7184   2.9193   9.2310   H         1 RES1   0.0000
    72 C16E     6.5122   3.2862  10.0184   C.ar      1 RES1   0.0000
    73 C17E     7.7192   3.8215   9.7127   C.ar      1 RES1   0.0000
    74 H12E     8.3946   3.8056  10.3517   H         1 RES1   0.0000
    75 C18E     7.9798   4.3940   8.4713   C.ar      1 RES1   0.0000
    76 H13E     8.8111   4.7716   8.3002   H         1 RES1   0.0000
    77 C19E     6.2144   2.7119  11.3932   C.3       1 RES1   0.0000
    78 H14E     6.0921   3.4280  12.0195   H         1 RES1   0.0000
    79 H15E     6.9482   2.1607  11.6762   H         1 RES1   0.0000
    80 H16E     5.4150   2.1819  11.3529   H         1 RES1   0.0000
    81 C20E     7.1414  10.4099   5.6173   C.1       1 RES1   0.0000
@<TRIPOS>BOND
     1     1     3    1
     2     2    41    2
     3     3     6   ar
     4     4     1    1
     5     5     1    1
     6     6     7    1
     7     8     6   ar
     8     9     8    1
     9    10     8   ar
    10    11    10    1
    11    12    10   ar
    12    13    12    1
    13    14     3   ar
    14    15     4    2
    15    16    15    1
    16    17    16   ar
    17    18    17    1
    18    19    17   ar
    19    20    19    1
    20    21    19   ar
    21    22    21    1
    22    23    21   ar
    23    24    23    1
    24    25    16   ar
    25    26    25    1
    26    27     4    1
    27    28    27   ar
    28    29    28    1
    29    30    28   ar
    30    31    30    1
    31    32    30   ar
    32    33    32   ar
    33    34    33    1
    34    35    27   ar
    35    36    35    1
    36    37    32    1
    37    38    37    1
    38    39    37    1
    39    40    37    1
    40    41     5    2
    41    42    81    2
    42    43     1    1
    43    44     1    1
    44    45     1    1
    45    46    43   ar
    46    47    46    1
    47    48    46   ar
    48    49    48    1
    49    50    48   ar
    50    51    50    1
    51    52    50   ar
    52    53    52    1
    53    54    43   ar
    54    55    44    2
    55    56    55    1
    56    57    56   ar
    57    58    57    1
    58    59    57   ar
    59    60    59    1
    60    61    59   ar
    61    62    61    1
    62    63    61   ar
    63    64    63    1
    64    65    56   ar
    65    66    65    1
    66    67    44    1
    67    68    67   ar
    68    69    68    1
    69    70    68   ar
    70    71    70    1
    71    72    70   ar
    72    73    72   ar
    73    74    73    1
    74    75    67   ar
    75    76    75    1
    76    77    72    1
    77    78    77    1
    78    79    77    1
    79    80    77    1
    80    81    45    2
    81    12    14   ar
    82    14    15    1
    83    23    25   ar
    84    33    35   ar
    85    52    54   ar
    86    54    55    1
    87    63    65   ar
    88    73    75   ar
@<TRIPOS>SUBSTRUCTURE
     1 RES1        1 GROUP             0 ****  ****    0  
@<TRIPOS>CRYSIN
   17.7250   17.7250   12.5780   90.0000   90.0000   90.0000    92     1
