@<TRIPOS>MOLECULE
YAZVII02
    81    88     1     0     0
SMALL
NO_CHARGES
****
Generated from the CSD

@<TRIPOS>ATOM
     1 Fe1      7.1044   7.1044   0.0000   Fe        1 RES1   0.0000
     2 S1       6.9607  11.7439  -0.9238   S.2       1 RES1   0.0000
     3 N1       7.3519   6.7129  -1.9030   N.ar      1 RES1   0.0000
     4 N2       7.1051   5.1502   0.0708   N.2       1 RES1   0.0000
     5 N3       7.0971   9.0428  -0.2651   N.2       1 RES1   0.0000
     6 C1       7.3729   5.4066  -2.2254   C.ar      1 RES1   0.0000
     7 C2       7.5464   4.9632  -3.5055   C.ar      1 RES1   0.0000
     8 H1       7.5499   4.0519  -3.6924   H         1 RES1   0.0000
     9 C3       7.7164   5.8815  -4.5144   C.ar      1 RES1   0.0000
    10 H2       7.8444   5.6011  -5.3914   H         1 RES1   0.0000
    11 C4       7.6954   7.2012  -4.2103   C.ar      1 RES1   0.0000
    12 H3       7.8128   7.8391  -4.8772   H         1 RES1   0.0000
    13 C5       7.4956   7.5903  -2.8960   C.ar      1 RES1   0.0000
    14 H4       7.4588   8.4998  -2.6994   H         1 RES1   0.0000
    15 C6       7.2257   4.5303  -1.0614   C.2       1 RES1   0.0000
    16 C7       7.2538   3.0512  -1.2104   C.ar      1 RES1   0.0000
    17 C8       8.3421   2.3379  -0.7744   C.ar      1 RES1   0.0000
    18 H5       9.0554   2.7795  -0.3750   H         1 RES1   0.0000
    19 C9       8.3824   0.9639  -0.9295   C.ar      1 RES1   0.0000
    20 H6       9.1272   0.4890  -0.6400   H         1 RES1   0.0000
    21 C10      7.3309   0.2997  -1.5048   C.ar      1 RES1   0.0000
    22 H7       7.3484  -0.6274  -1.5830   H         1 RES1   0.0000
    23 C11      6.2636   1.0060  -1.9604   C.ar      1 RES1   0.0000
    24 H8       5.5608   0.5591  -2.3745   H         1 RES1   0.0000
    25 C12      6.2110   2.3835  -1.8138   C.ar      1 RES1   0.0000
    26 H9       5.4732   2.8566  -2.1228   H         1 RES1   0.0000
    27 C13      6.9050   4.4269   1.2788   C.ar      1 RES1   0.0000
    28 C14      5.6800   3.8433   1.5695   C.ar      1 RES1   0.0000
    29 H10      5.0053   3.8346   0.9307   H         1 RES1   0.0000
    30 C15      5.4644   3.2755   2.8154   C.ar      1 RES1   0.0000
    31 H11      4.6337   2.9005   3.0011   H         1 RES1   0.0000
    32 C16      6.4371   3.2440   3.7815   C.ar      1 RES1   0.0000
    33 C17      7.6568   3.7890   3.4615   C.ar      1 RES1   0.0000
    34 H12      8.3403   3.7610   4.0906   H         1 RES1   0.0000
    35 C18      7.9005   4.3778   2.2377   C.ar      1 RES1   0.0000
    36 H13      8.7364   4.7424   2.0569   H         1 RES1   0.0000
    37 C19      6.1777   2.6271   5.1422   C.3       1 RES1   0.0000
    38 H14      5.2313   2.5973   5.3059   H         1 RES1   0.0000
    39 H15      6.6018   3.1563   5.8201   H         1 RES1   0.0000
    40 H16      6.5352   1.7350   5.1630   H         1 RES1   0.0000
    41 C20      7.0277  10.1700  -0.5216   C.1       1 RES1   0.0000
    42 S1E     11.7439   6.9607   0.9238   S.2       1 RES1   0.0000
    43 N1E      6.7129   7.3519   1.9030   N.ar      1 RES1   0.0000
    44 N2E      5.1502   7.1051  -0.0708   N.2       1 RES1   0.0000
    45 N3E      9.0428   7.0971   0.2651   N.2       1 RES1   0.0000
    46 C1E      5.4066   7.3729   2.2254   C.ar      1 RES1   0.0000
    47 C2E      4.9632   7.5464   3.5055   C.ar      1 RES1   0.0000
    48 H1E      4.0519   7.5499   3.6924   H         1 RES1   0.0000
    49 C3E      5.8815   7.7164   4.5144   C.ar      1 RES1   0.0000
    50 H2E      5.6011   7.8444   5.3914   H         1 RES1   0.0000
    51 C4E      7.2012   7.6954   4.2103   C.ar      1 RES1   0.0000
    52 H3E      7.8391   7.8128   4.8772   H         1 RES1   0.0000
    53 C5E      7.5903   7.4956   2.8960   C.ar      1 RES1   0.0000
    54 H4E      8.4998   7.4588   2.6994   H         1 RES1   0.0000
    55 C6E      4.5303   7.2257   1.0614   C.2       1 RES1   0.0000
    56 C7E      3.0512   7.2538   1.2104   C.ar      1 RES1   0.0000
    57 C8E      2.3379   8.3421   0.7744   C.ar      1 RES1   0.0000
    58 H5E      2.7795   9.0554   0.3750   H         1 RES1   0.0000
    59 C9E      0.9639   8.3824   0.9295   C.ar      1 RES1   0.0000
    60 H6E      0.4890   9.1272   0.6400   H         1 RES1   0.0000
    61 C10E     0.2997   7.3309   1.5048   C.ar      1 RES1   0.0000
    62 H7E     -0.6274   7.3484   1.5830   H         1 RES1   0.0000
    63 C11E     1.0060   6.2636   1.9604   C.ar      1 RES1   0.0000
    64 H8E      0.5591   5.5608   2.3745   H         1 RES1   0.0000
    65 C12E     2.3835   6.2110   1.8138   C.ar      1 RES1   0.0000
    66 H9E      2.8566   5.4732   2.1228   H         1 RES1   0.0000
    67 C13E     4.4269   6.9050  -1.2788   C.ar      1 RES1   0.0000
    68 C14E     3.8433   5.6800  -1.5695   C.ar      1 RES1   0.0000
    69 H10E     3.8346   5.0053  -0.9307   H         1 RES1   0.0000
    70 C15E     3.2755   5.4644  -2.8154   C.ar      1 RES1   0.0000
    71 H11E     2.9005   4.6337  -3.0011   H         1 RES1   0.0000
    72 C16E     3.2440   6.4371  -3.7815   C.ar      1 RES1   0.0000
    73 C17E     3.7890   7.6568  -3.4615   C.ar      1 RES1   0.0000
    74 H12E     3.7610   8.3403  -4.0906   H         1 RES1   0.0000
    75 C18E     4.3778   7.9005  -2.2377   C.ar      1 RES1   0.0000
    76 H13E     4.7424   8.7364  -2.0569   H         1 RES1   0.0000
    77 C19E     2.6271   6.1777  -5.1422   C.3       1 RES1   0.0000
    78 H14E     2.5973   5.2313  -5.3059   H         1 RES1   0.0000
    79 H15E     3.1563   6.6018  -5.8201   H         1 RES1   0.0000
    80 H16E     1.7350   6.5352  -5.1630   H         1 RES1   0.0000
    81 C20E    10.1700   7.0277   0.5216   C.1       1 RES1   0.0000
@<TRIPOS>BOND
     1     1     3    1
     2     2    41    2
     3     3     6   ar
     4     4     1    1
     5     5     1    1
     6     6     7   ar
     7     7     8    1
     8     9     7   ar
     9    10     9    1
    10    11     9   ar
    11    12    11    1
    12    13     3   ar
    13    14    13    1
    14    15     4    2
    15    16    15    1
    16    17    16   ar
    17    18    17    1
    18    19    17   ar
    19    20    19    1
    20    21    19   ar
    21    22    21    1
    22    23    21   ar
    23    24    23    1
    24    25    16   ar
    25    26    25    1
    26    27     4    1
    27    28    27   ar
    28    29    28    1
    29    30    28   ar
    30    31    30    1
    31    32    30   ar
    32    33    32   ar
    33    34    33    1
    34    35    27   ar
    35    36    35    1
    36    37    32    1
    37    38    37    1
    38    39    37    1
    39    40    37    1
    40    41     5    2
    41    42    81    2
    42    43     1    1
    43    44     1    1
    44    45     1    1
    45    46    43   ar
    46    47    46   ar
    47    48    47    1
    48    49    47   ar
    49    50    49    1
    50    51    49   ar
    51    52    51    1
    52    53    43   ar
    53    54    53    1
    54    55    44    2
    55    56    55    1
    56    57    56   ar
    57    58    57    1
    58    59    57   ar
    59    60    59    1
    60    61    59   ar
    61    62    61    1
    62    63    61   ar
    63    64    63    1
    64    65    56   ar
    65    66    65    1
    66    67    44    1
    67    68    67   ar
    68    69    68    1
    69    70    68   ar
    70    71    70    1
    71    72    70   ar
    72    73    72   ar
    73    74    73    1
    74    75    67   ar
    75    76    75    1
    76    77    72    1
    77    78    77    1
    78    79    77    1
    79    80    77    1
    80    81    45    2
    81     6    15    1
    82    11    13   ar
    83    23    25   ar
    84    33    35   ar
    85    46    55    1
    86    51    53   ar
    87    63    65   ar
    88    73    75   ar
@<TRIPOS>SUBSTRUCTURE
     1 RES1        1 GROUP             0 ****  ****    0  
@<TRIPOS>CRYSIN
   17.5254   17.5254   12.2143   90.0000   90.0000   90.0000    92     1
