@<TRIPOS>MOLECULE
YELJUY
    86    91     2     0     0
SMALL
USER_CHARGES
****
Generated from the CSD

@<TRIPOS>ATOM
     1 Fe1      8.7437   6.5970  21.0710   Fe        1 RES1   1.0000
     2 O1       7.8265   6.5368  19.3916   O.3       1 RES1   0.0000
     3 N1       7.4934   7.9139  21.7111   N.2       1 RES1   0.0000
     4 N2       7.5467   5.1212  21.7411   N.3       1 RES1   0.0000
     5 H1       6.8333   5.0242  21.0764   H         1 RES1   0.0000
     6 C1       7.0046   6.2421  16.5192   C.3       1 RES1   0.0000
     7 C2       6.9407   7.5283  17.3781   C.ar      1 RES1   0.0000
     8 C3       7.2992   7.5650  18.7797   C.ar      1 RES1   0.0000
     9 C4       6.9539   8.7629  20.9256   C.2       1 RES1   0.0000
    10 H2       6.4717   9.4509  21.3246   H         1 RES1   0.0000
    11 C5       6.5324   8.6939  16.7898   C.ar      1 RES1   0.0000
    12 H3       6.3665   8.6851  15.8748   H         1 RES1   0.0000
    13 C6       6.5447   9.9136  18.8194   C.ar      1 RES1   0.0000
    14 H4       6.3665  10.6900  19.3003   H         1 RES1   0.0000
    15 C7       7.0133   8.7673  19.4877   C.ar      1 RES1   0.0000
    16 C8       8.3266   3.8603  21.6989   C.3       1 RES1   0.0000
    17 H5       7.7263   3.0983  21.6998   H         1 RES1   0.0000
    18 H6       8.9002   3.7984  22.4791   H         1 RES1   0.0000
    19 C9       6.9495   7.8212  23.0795   C.3       1 RES1   0.0000
    20 H7       6.4030   8.5989  23.2712   H         1 RES1   0.0000
    21 H8       7.6759   7.7928  23.7221   H         1 RES1   0.0000
    22 C10      6.1136   6.5630  23.1895   C.3       1 RES1   0.0000
    23 H9       5.6677   6.5645  24.0509   H         1 RES1   0.0000
    24 H10      5.4270   6.5891  22.5052   H         1 RES1   0.0000
    25 C11      8.4298   6.0725  16.0140   C.3       1 RES1   0.0000
    26 H11      8.6284   6.7635  15.3765   H         1 RES1   0.0000
    27 H12      8.5199   5.2144  15.5914   H         1 RES1   0.0000
    28 H13      9.0412   6.1320  16.7506   H         1 RES1   0.0000
    29 C12      6.8752   5.2742  23.0504   C.3       1 RES1   0.0000
    30 H14      7.5433   5.2271  23.7523   H         1 RES1   0.0000
    31 H15      6.2627   4.5325  23.1765   H         1 RES1   0.0000
    32 C13      6.5788   5.0180  17.2824   C.3       1 RES1   0.0000
    33 H16      7.0885   4.9517  18.0911   H         1 RES1   0.0000
    34 H17      6.7299   4.2377  16.7423   H         1 RES1   0.0000
    35 H18      5.6447   5.0827  17.4945   H         1 RES1   0.0000
    36 C14      6.3505   9.8917  17.4721   C.ar      1 RES1   0.0000
    37 H19      6.1001  10.6632  17.0172   H         1 RES1   0.0000
    38 C15      6.1197   6.3593  15.2638   C.3       1 RES1   0.0000
    39 H20      5.2015   6.4505  15.5294   H         1 RES1   0.0000
    40 H21      6.2216   5.5701  14.7281   H         1 RES1   0.0000
    41 H22      6.3853   7.1289  14.7574   H         1 RES1   0.0000
    42 O1D      9.6609   6.5368  22.7504   O.3       1 RES1   0.0000
    43 N1D      9.9940   7.9139  20.4309   N.2       1 RES1   0.0000
    44 N2D      9.9407   5.1212  20.4009   N.3       1 RES1   0.0000
    45 H1D     10.6541   5.0242  21.0656   H         1 RES1   0.0000
    46 C1D     10.4828   6.2421  25.6228   C.3       1 RES1   0.0000
    47 C2D     10.5467   7.5283  24.7639   C.ar      1 RES1   0.0000
    48 C3D     10.1882   7.5650  23.3623   C.ar      1 RES1   0.0000
    49 C4D     10.5335   8.7629  21.2164   C.2       1 RES1   0.0000
    50 H2D     11.0157   9.4509  20.8174   H         1 RES1   0.0000
    51 C5D     10.9550   8.6939  25.3522   C.ar      1 RES1   0.0000
    52 H3D     11.1209   8.6851  26.2672   H         1 RES1   0.0000
    53 C6D     10.9427   9.9136  23.3226   C.ar      1 RES1   0.0000
    54 H4D     11.1209  10.6900  22.8417   H         1 RES1   0.0000
    55 C7D     10.4741   8.7673  22.6543   C.ar      1 RES1   0.0000
    56 C8D      9.1608   3.8603  20.4431   C.3       1 RES1   0.0000
    57 H5D      9.7611   3.0983  20.4422   H         1 RES1   0.0000
    58 H6D      8.5872   3.7984  19.6629   H         1 RES1   0.0000
    59 C9D     10.5379   7.8212  19.0625   C.3       1 RES1   0.0000
    60 H7D     11.0844   8.5989  18.8708   H         1 RES1   0.0000
    61 H8D      9.8115   7.7928  18.4199   H         1 RES1   0.0000
    62 C10D    11.3738   6.5630  18.9525   C.3       1 RES1   0.0000
    63 H9D     11.8197   6.5645  18.0911   H         1 RES1   0.0000
    64 H10D    12.0604   6.5891  19.6368   H         1 RES1   0.0000
    65 C11D     9.0576   6.0725  26.1280   C.3       1 RES1   0.0000
    66 H11D     8.8590   6.7635  26.7655   H         1 RES1   0.0000
    67 H12D     8.9675   5.2144  26.5506   H         1 RES1   0.0000
    68 H13D     8.4462   6.1320  25.3914   H         1 RES1   0.0000
    69 C12D    10.6122   5.2742  19.0916   C.3       1 RES1   0.0000
    70 H14D     9.9441   5.2271  18.3897   H         1 RES1   0.0000
    71 H15D    11.2247   4.5325  18.9655   H         1 RES1   0.0000
    72 C13D    10.9086   5.0180  24.8596   C.3       1 RES1   0.0000
    73 H16D    10.3989   4.9517  24.0509   H         1 RES1   0.0000
    74 H17D    10.7575   4.2377  25.3997   H         1 RES1   0.0000
    75 H18D    11.8427   5.0827  24.6475   H         1 RES1   0.0000
    76 C14D    11.1369   9.8917  24.6699   C.ar      1 RES1   0.0000
    77 H19D    11.3873  10.6632  25.1248   H         1 RES1   0.0000
    78 C15D    11.3677   6.3593  26.8782   C.3       1 RES1   0.0000
    79 H20D    12.2859   6.4505  26.6126   H         1 RES1   0.0000
    80 H21D    11.2658   5.5701  27.4139   H         1 RES1   0.0000
    81 H22D    11.1021   7.1289  27.3846   H         1 RES1   0.0000
    82 F1       3.5972   2.6257  20.2454   F         2 RES2   0.0000
    83 F2       5.1946   4.1655  20.3061   F         2 RES2   0.0000
    84 B1       4.3719   3.3961  21.0710   B         2 RES2  -1.0000
    85 F1D      5.1465   2.6257  21.8966   F         2 RES2   0.0000
    86 F2D      3.5491   4.1655  21.8359   F         2 RES2   0.0000
@<TRIPOS>BOND
     1     1     2    1
     2     2     8    1
     3     3     1    1
     4     4     1    1
     5     5     4    1
     6     6     7    1
     7     7     8   ar
     8     8    15   ar
     9     9     3    2
    10    10     9    1
    11    11     7   ar
    12    12    11    1
    13    13    14    1
    14    15     9    1
    15    16     4    1
    16    17    16    1
    17    18    16    1
    18    19     3    1
    19    20    19    1
    20    21    19    1
    21    22    19    1
    22    23    22    1
    23    24    22    1
    24    25     6    1
    25    26    25    1
    26    27    25    1
    27    28    25    1
    28    29     4    1
    29    30    29    1
    30    31    29    1
    31    32     6    1
    32    33    32    1
    33    34    32    1
    34    35    32    1
    35    36    11   ar
    36    37    36    1
    37    38     6    1
    38    39    38    1
    39    40    38    1
    40    41    38    1
    41    42     1    1
    42    43     1    1
    43    44     1    1
    44    45    44    1
    45    46    47    1
    46    47    48   ar
    47    48    42    1
    48    49    43    2
    49    50    49    1
    50    51    47   ar
    51    52    51    1
    52    53    54    1
    53    55    48   ar
    54    56    16    1
    55    57    56    1
    56    58    56    1
    57    59    43    1
    58    60    59    1
    59    61    59    1
    60    62    59    1
    61    63    62    1
    62    64    62    1
    63    65    46    1
    64    66    65    1
    65    67    65    1
    66    68    65    1
    67    69    44    1
    68    70    69    1
    69    71    69    1
    70    72    46    1
    71    73    72    1
    72    74    72    1
    73    75    72    1
    74    76    51   ar
    75    77    76    1
    76    78    46    1
    77    79    78    1
    78    80    78    1
    79    81    78    1
    80    13    15   ar
    81    13    36   ar
    82    22    29    1
    83    44    56    1
    84    49    55    1
    85    53    55   ar
    86    53    76   ar
    87    62    69    1
    88    82    84    1
    89    83    84    1
    90    84    85    1
    91    86    84    1
@<TRIPOS>SUBSTRUCTURE
     1 RES1        1 GROUP             0 ****  ****    0  
     2 RES2       82 GROUP             0 ****  ****    0  
@<TRIPOS>CRYSIN
    8.7437    8.7437   42.1420   90.0000   90.0000   90.0000    95     1
