@<TRIPOS>MOLECULE
YELLAG
    93    98     2     0     0
SMALL
USER_CHARGES
****
Generated from the CSD

@<TRIPOS>ATOM
     1 Fe1      2.7832   4.7995  12.2814   Fe        1 RES1   1.0000
     2 O1       1.8696   3.6724  11.0890   O.3       1 RES1   0.0000
     3 C1       1.3406   2.5041  11.4092   C.ar      1 RES1   0.0000
     4 C2       1.2057   1.5371  10.4092   C.ar      1 RES1   0.0000
     5 H1       1.5449   1.7243   9.5411   H         1 RES1   0.0000
     6 C3       0.5846   0.2943  10.6425   C.ar      1 RES1   0.0000
     7 N1       0.4880  -0.6429   9.6590   N.pl3     1 RES1   0.0000
     8 C4       1.0299  -0.4072   8.3210   C.3       1 RES1   0.0000
     9 H2       0.8711   0.5373   8.0681   H         1 RES1   0.0000
    10 H3       0.5515  -0.9802   7.6709   H         1 RES1   0.0000
    11 C5       2.5252  -0.7006   8.2388   C.3       1 RES1   0.0000
    12 H4       2.8381  -0.5491   7.3225   H         1 RES1   0.0000
    13 H5       2.6894  -1.6342   8.4896   H         1 RES1   0.0000
    14 H6       3.0089  -0.1079   8.8518   H         1 RES1   0.0000
    15 C6      -0.1331  -1.9539   9.8686   C.3       1 RES1   0.0000
    16 H7      -0.0108  -2.2188  10.8148   H         1 RES1   0.0000
    17 H8       0.3322  -2.6228   9.3052   H         1 RES1   0.0000
    18 C7      -1.6098  -1.9780   9.5399   C.3       1 RES1   0.0000
    19 H9      -1.7409  -1.7172   8.6053   H         1 RES1   0.0000
    20 H10     -2.0851  -1.3500  10.1239   H         1 RES1   0.0000
    21 H11     -1.9607  -2.8833   9.6781   H         1 RES1   0.0000
    22 C8       0.0507   0.0599  11.9498   C.ar      1 RES1   0.0000
    23 H12     -0.4039  -0.7534  12.1356   H         1 RES1   0.0000
    24 C9       0.1924   1.0008  12.9322   C.ar      1 RES1   0.0000
    25 H13     -0.1765   0.8223  13.7897   H         1 RES1   0.0000
    26 C10      0.8662   2.2283  12.7253   C.ar      1 RES1   0.0000
    27 C11      0.8599   3.2320  13.7354   C.2       1 RES1   0.0000
    28 H14      0.3180   3.0713  14.4988   H         1 RES1   0.0000
    29 N2       1.5270   4.3484  13.7091   N.2       1 RES1   0.0000
    30 C12      1.0674   5.4047  14.6323   C.3       1 RES1   0.0000
    31 H15      1.8484   5.8290  15.0680   H         1 RES1   0.0000
    32 H16      0.4979   5.0070  15.3373   H         1 RES1   0.0000
    33 C13      0.2725   6.4578  13.8634   C.3       1 RES1   0.0000
    34 H17     -0.4781   6.0118  13.3956   H         1 RES1   0.0000
    35 H18     -0.1158   7.0981  14.5110   H         1 RES1   0.0000
    36 C14      1.0917   7.2296  12.8441   C.3       1 RES1   0.0000
    37 H19      0.5319   7.9461  12.4521   H         1 RES1   0.0000
    38 H20      1.8586   7.6583  13.3012   H         1 RES1   0.0000
    39 N3       1.5984   6.3548  11.7553   N.3       1 RES1   0.0000
    40 H21      0.8002   5.9711  11.2911   H         1 RES1   0.0000
    41 C15      2.3451   7.1560  10.7498   C.3       1 RES1   0.0000
    42 H22      3.0129   7.7329  11.1982   H         1 RES1   0.0000
    43 H23      1.7226   7.7337  10.2396   H         1 RES1   0.0000
    44 C16      3.0329   6.1811   9.8232   C.3       1 RES1   0.0000
    45 H24      2.3637   5.6334   9.3418   H         1 RES1   0.0000
    46 H25      3.5809   6.6669   9.1576   H         1 RES1   0.0000
    47 N4       3.8949   5.3176  10.6711   N.3       1 RES1   0.0000
    48 H26      4.6444   5.8888  11.0050   H         1 RES1   0.0000
    49 C17      4.5037   4.2297   9.8579   C.3       1 RES1   0.0000
    50 H27      5.0588   4.6333   9.1439   H         1 RES1   0.0000
    51 H28      3.7820   3.7101   9.4224   H         1 RES1   0.0000
    52 C18      5.3638   3.2884  10.6819   C.3       1 RES1   0.0000
    53 H29      6.0634   3.8156  11.1435   H         1 RES1   0.0000
    54 H30      5.8178   2.6529  10.0722   H         1 RES1   0.0000
    55 C19      4.5735   2.4970  11.7222   C.3       1 RES1   0.0000
    56 H31      3.8064   2.0447  11.2896   H         1 RES1   0.0000
    57 H32      5.1526   1.8065  12.1311   H         1 RES1   0.0000
    58 N5       4.0877   3.4256  12.7624   N.2       1 RES1   0.0000
    59 C20      4.7720   3.4479  13.8625   C.2       1 RES1   0.0000
    60 H33      5.3393   2.7061  14.0347   H         1 RES1   0.0000
    61 C21      4.7478   4.4914  14.8379   C.ar      1 RES1   0.0000
    62 C22      5.4161   4.3419  16.0698   C.ar      1 RES1   0.0000
    63 H34      5.7974   3.4977  16.2808   H         1 RES1   0.0000
    64 C23      5.5400   5.3616  16.9771   C.ar      1 RES1   0.0000
    65 H35      5.9825   5.2114  17.8040   H         1 RES1   0.0000
    66 C24      5.0036   6.6482  16.6764   C.ar      1 RES1   0.0000
    67 N6       5.0779   7.6818  17.5797   N.pl3     1 RES1   0.0000
    68 C25      4.6483   9.0221  17.1684   C.3       1 RES1   0.0000
    69 H36      4.9605   9.1893  16.2442   H         1 RES1   0.0000
    70 H37      5.0792   9.6919  17.7568   H         1 RES1   0.0000
    71 C26      3.1480   9.2163  17.2212   C.3       1 RES1   0.0000
    72 H38      2.7178   8.6090  16.5836   H         1 RES1   0.0000
    73 H39      2.9303  10.1434  16.9868   H         1 RES1   0.0000
    74 H40      2.8256   9.0236  18.1266   H         1 RES1   0.0000
    75 C27      6.0890   7.6794  18.6385   C.3       1 RES1   0.0000
    76 H41      6.1037   6.7923  19.0777   H         1 RES1   0.0000
    77 H42      5.8520   8.3557  19.3211   H         1 RES1   0.0000
    78 C28      7.4731   7.9897  18.0744   C.3       1 RES1   0.0000
    79 H43      7.7888   7.2263  17.5468   H         1 RES1   0.0000
    80 H44      8.0966   8.1568  18.8114   H         1 RES1   0.0000
    81 H45      7.4220   8.7841  17.5027   H         1 RES1   0.0000
    82 C29      4.3947   6.8239  15.4278   C.ar      1 RES1   0.0000
    83 H46      4.0653   7.6858  15.1973   H         1 RES1   0.0000
    84 C30      4.2515   5.7802  14.5048   C.ar      1 RES1   0.0000
    85 O2       3.7061   6.0521  13.3344   O.3       1 RES1   0.0000
    86 O3       4.7505   0.2914   5.1735   O.2       2 RES2   0.0000
    87 O4       7.1374   0.6992   5.4602   O.2       2 RES2   0.0000
    88 O5       5.6920   2.4727   4.6263   O.3       2 RES2  -1.0000
    89 S1       5.8076   1.2446   5.3928   S.o2      2 RES2   0.0000
    90 C31      5.4798   1.8252   7.0960   C.3       2 RES2   0.0000
    91 F1       5.5527   0.8322   7.9812   F         2 RES2   0.0000
    92 F2       6.3638   2.7572   7.4728   F         2 RES2   0.0000
    93 F3       4.2620   2.3640   7.1962   F         2 RES2   0.0000
@<TRIPOS>BOND
     1     1     2    1
     2     2     3    1
     3     3     4   ar
     4     4     5    1
     5     6     4   ar
     6     7     6    1
     7     8     7    1
     8     9     8    1
     9    10     8    1
    10    11     8    1
    11    12    11    1
    12    13    11    1
    13    14    11    1
    14    15     7    1
    15    16    15    1
    16    17    15    1
    17    18    15    1
    18    19    18    1
    19    20    18    1
    20    21    18    1
    21    22     6   ar
    22    23    22    1
    23    24    22   ar
    24    25    24    1
    25    26     3   ar
    26    27    26    1
    27    28    27    1
    28    29     1    1
    29    30    29    1
    30    31    30    1
    31    32    30    1
    32    33    30    1
    33    34    33    1
    34    35    33    1
    35    36    33    1
    36    37    36    1
    37    38    36    1
    38    39     1    1
    39    40    39    1
    40    41    39    1
    41    42    41    1
    42    43    41    1
    43    44    41    1
    44    45    44    1
    45    46    44    1
    46    47     1    1
    47    48    47    1
    48    49    47    1
    49    50    49    1
    50    51    49    1
    51    52    49    1
    52    53    52    1
    53    54    52    1
    54    55    52    1
    55    56    55    1
    56    57    55    1
    57    58     1    1
    58    59    58    2
    59    60    59    1
    60    61    59    1
    61    62    61   ar
    62    63    62    1
    63    64    62   ar
    64    65    64    1
    65    66    64   ar
    66    67    66    1
    67    68    67    1
    68    69    68    1
    69    70    68    1
    70    71    68    1
    71    72    71    1
    72    73    71    1
    73    74    71    1
    74    75    67    1
    75    76    75    1
    76    77    75    1
    77    78    75    1
    78    79    78    1
    79    80    78    1
    80    81    78    1
    81    82    66   ar
    82    83    82    1
    83    84    61   ar
    84    85     1    1
    85    24    26   ar
    86    27    29    2
    87    36    39    1
    88    44    47    1
    89    55    58    1
    90    82    84   ar
    91    84    85    1
    92    86    89    2
    93    87    89    2
    94    88    89    1
    95    89    90    1
    96    90    91    1
    97    92    90    1
    98    93    90    1
@<TRIPOS>SUBSTRUCTURE
     1 RES1        1 GROUP             0 ****  ****    0  
     2 RES2       86 GROUP             0 ****  ****    0  
@<TRIPOS>CRYSIN
    7.5835   14.6609   16.2660  108.0496   99.1600   91.9331     2     1
