@<TRIPOS>MOLECULE
YELLEK
    92    97     2     0     0
SMALL
USER_CHARGES
****
Generated from the CSD

@<TRIPOS>ATOM
     1 Fe1      6.7873  12.5081  11.0287   Fe        1 RES1   1.0000
     2 O1       5.6516  11.5896  12.2026   O.3       1 RES1   0.0000
     3 O2       7.8965  13.5916   9.9688   O.3       1 RES1   0.0000
     4 N1       3.4839   7.7088  13.8849   N.pl3     1 RES1   0.0000
     5 N2       5.6746  11.9894   9.5146   N.2       1 RES1   0.0000
     6 N3       5.6766  14.1786  11.2889   N.3       1 RES1   0.0000
     7 H1       4.8374  13.9026  11.7576   H         1 RES1   0.0000
     8 N4       7.7720  13.0985  12.6914   N.3       1 RES1   0.0000
     9 H2       8.6156  13.5434  12.3904   H         1 RES1   0.0000
    10 N5       8.0193  11.0095  10.8314   N.2       1 RES1   0.0000
    11 N6       9.6604  14.6386   5.6867   N.pl3     1 RES1   0.0000
    12 C1       5.0604  10.4378  11.9437   C.ar      1 RES1   0.0000
    13 C2       4.6430   9.6480  13.0203   C.ar      1 RES1   0.0000
    14 H3       4.8401   9.9328  13.9045   H         1 RES1   0.0000
    15 C3       3.9392   8.4427  12.8301   C.ar      1 RES1   0.0000
    16 C4       3.6886   8.0175  11.4871   C.ar      1 RES1   0.0000
    17 H4       3.2415   7.1955  11.3255   H         1 RES1   0.0000
    18 C5       4.0926   8.7944  10.4354   C.ar      1 RES1   0.0000
    19 H5       3.8949   8.5045   9.5521   H         1 RES1   0.0000
    20 C6       4.7929  10.0112  10.6101   C.ar      1 RES1   0.0000
    21 C7       2.8367   6.4082  13.7122   C.3       1 RES1   0.0000
    22 H6       2.9726   5.8708  14.5326   H         1 RES1   0.0000
    23 H7       3.2727   5.9301  12.9630   H         1 RES1   0.0000
    24 C8       1.3442   6.5097  13.4307   C.3       1 RES1   0.0000
    25 H8       1.2035   6.9617  12.5725   H         1 RES1   0.0000
    26 H9       0.9110   7.0226  14.1453   H         1 RES1   0.0000
    27 H10      0.9571   5.6106  13.3936   H         1 RES1   0.0000
    28 C9       3.4766   8.2350  15.2492   C.3       1 RES1   0.0000
    29 H11      2.6536   7.9291  15.7072   H         1 RES1   0.0000
    30 H12      3.4515   9.2237  15.2117   H         1 RES1   0.0000
    31 C10      4.6835   7.8026  16.0637   C.3       1 RES1   0.0000
    32 H13      5.5028   8.1115  15.6223   H         1 RES1   0.0000
    33 H14      4.6978   6.8256  16.1332   H         1 RES1   0.0000
    34 H15      4.6282   8.1925  16.9604   H         1 RES1   0.0000
    35 C11      4.9715  10.8933   9.5093   C.2       1 RES1   0.0000
    36 H16      4.5389  10.6613   8.6955   H         1 RES1   0.0000
    37 C12      5.3475  12.9738   8.4720   C.3       1 RES1   0.0000
    38 H17      4.8398  12.5338   7.7448   H         1 RES1   0.0000
    39 H18      6.1811  13.3436   8.0874   H         1 RES1   0.0000
    40 C13      4.5111  14.1029   9.0763   C.3       1 RES1   0.0000
    41 H19      4.1909  14.6902   8.3467   H         1 RES1   0.0000
    42 H20      3.7169  13.7110   9.5181   H         1 RES1   0.0000
    43 C14      5.2694  14.9468  10.0875   C.3       1 RES1   0.0000
    44 H21      6.0777  15.3202   9.6540   H         1 RES1   0.0000
    45 H22      4.6979  15.7061  10.3686   H         1 RES1   0.0000
    46 C15      6.4364  15.0414  12.2291   C.3       1 RES1   0.0000
    47 H23      5.8508  15.7498  12.5972   H         1 RES1   0.0000
    48 H24      7.1980  15.4714  11.7653   H         1 RES1   0.0000
    49 C16      6.9328  14.1431  13.3328   C.3       1 RES1   0.0000
    50 H25      7.4669  14.6616  13.9847   H         1 RES1   0.0000
    51 H26      6.1703  13.7291  13.8088   H         1 RES1   0.0000
    52 C17      8.1559  12.0576  13.6815   C.3       1 RES1   0.0000
    53 H27      7.3343  11.6615  14.0665   H         1 RES1   0.0000
    54 H28      8.6603  12.4846  14.4184   H         1 RES1   0.0000
    55 C18      9.0039  10.9490  13.0781   C.3       1 RES1   0.0000
    56 H29      9.2824  10.3319  13.8011   H         1 RES1   0.0000
    57 H30      9.8233  11.3496  12.6929   H         1 RES1   0.0000
    58 C19      8.2930  10.1439  11.9927   C.3       1 RES1   0.0000
    59 H31      8.8614   9.3825  11.7159   H         1 RES1   0.0000
    60 H32      7.4426   9.7813  12.3472   H         1 RES1   0.0000
    61 C20      8.8102  10.8735   9.8126   C.2       1 RES1   0.0000
    62 H33      9.3426  10.0867   9.7743   H         1 RES1   0.0000
    63 C21      8.9455  11.8107   8.7417   C.ar      1 RES1   0.0000
    64 C22      9.6689  11.4734   7.5769   C.ar      1 RES1   0.0000
    65 H34      9.9948  10.5853   7.4870   H         1 RES1   0.0000
    66 C23      9.9221  12.3711   6.5686   C.ar      1 RES1   0.0000
    67 H35     10.3978  12.0957   5.7939   H         1 RES1   0.0000
    68 C24      9.4681  13.7195   6.6897   C.ar      1 RES1   0.0000
    69 C25      8.7980  14.0795   7.8712   C.ar      1 RES1   0.0000
    70 H36      8.5233  14.9823   7.9840   H         1 RES1   0.0000
    71 C26      8.5196  13.1593   8.8887   C.ar      1 RES1   0.0000
    72 C27     10.6080  14.4182   4.5989   C.3       1 RES1   0.0000
    73 H37     10.3358  14.9580   3.8153   H         1 RES1   0.0000
    74 H38     10.5848  13.4637   4.3339   H         1 RES1   0.0000
    75 C28     12.0289  14.7933   4.9957   C.3       1 RES1   0.0000
    76 H39     12.6079  14.7611   4.2058   H         1 RES1   0.0000
    77 H40     12.3584  14.1607   5.6674   H         1 RES1   0.0000
    78 H41     12.0357  15.6998   5.3695   H         1 RES1   0.0000
    79 C29      9.2371  16.0279   5.8794   C.3       1 RES1   0.0000
    80 H42      9.7358  16.6049   5.2491   H         1 RES1   0.0000
    81 H43      9.4745  16.3112   6.7987   H         1 RES1   0.0000
    82 C30      7.7467  16.2434   5.6692   C.3       1 RES1   0.0000
    83 H44      7.4975  15.9487   4.7691   H         1 RES1   0.0000
    84 H45      7.5365  17.1959   5.7708   H         1 RES1   0.0000
    85 H46      7.2447  15.7254   6.3326   H         1 RES1   0.0000
    86 P1       2.7996  15.9391  13.5977   P.3       2 RES2  -1.0000
    87 F1       2.8126  17.0149  14.7793   F         2 RES2   0.0000
    88 F2       2.7819  14.8543  12.4018   F         2 RES2   0.0000
    89 F3       3.7199  16.8995  12.7023   F         2 RES2   0.0000
    90 F4       1.4823  16.6206  12.9811   F         2 RES2   0.0000
    91 F5       1.8765  14.9736  14.4789   F         2 RES2   0.0000
    92 F6       4.1083  15.2470  14.2076   F         2 RES2   0.0000
@<TRIPOS>BOND
     1     1     2    1
     2     2    12    1
     3     3     1    1
     4     4    15    1
     5     5     1    1
     6     6     1    1
     7     7     6    1
     8     8     1    1
     9     9     8    1
    10    10     1    1
    11    11    68    1
    12    12    13   ar
    13    13    14    1
    14    15    13   ar
    15    16    15   ar
    16    17    16    1
    17    18    16   ar
    18    19    18    1
    19    20    12   ar
    20    21     4    1
    21    22    21    1
    22    23    21    1
    23    24    21    1
    24    25    24    1
    25    26    24    1
    26    27    24    1
    27    28     4    1
    28    29    28    1
    29    30    28    1
    30    31    28    1
    31    32    31    1
    32    33    31    1
    33    34    31    1
    34    35     5    2
    35    36    35    1
    36    37     5    1
    37    38    37    1
    38    39    37    1
    39    40    37    1
    40    41    40    1
    41    42    40    1
    42    43     6    1
    43    44    43    1
    44    45    43    1
    45    46     6    1
    46    47    46    1
    47    48    46    1
    48    49     8    1
    49    50    49    1
    50    51    49    1
    51    52     8    1
    52    53    52    1
    53    54    52    1
    54    55    52    1
    55    56    55    1
    56    57    55    1
    57    58    10    1
    58    59    58    1
    59    60    58    1
    60    61    10    2
    61    62    61    1
    62    63    61    1
    63    64    63   ar
    64    65    64    1
    65    66    64   ar
    66    67    66    1
    67    68    66   ar
    68    69    68   ar
    69    70    69    1
    70    71     3    1
    71    72    11    1
    72    73    72    1
    73    74    72    1
    74    75    72    1
    75    76    75    1
    76    77    75    1
    77    78    75    1
    78    79    11    1
    79    80    79    1
    80    81    79    1
    81    82    79    1
    82    83    82    1
    83    84    82    1
    84    85    82    1
    85    18    20   ar
    86    20    35    1
    87    40    43    1
    88    46    49    1
    89    55    58    1
    90    63    71   ar
    91    69    71   ar
    92    86    87    1
    93    88    86    1
    94    89    86    1
    95    90    86    1
    96    91    86    1
    97    92    86    1
@<TRIPOS>SUBSTRUCTURE
     1 RES1        1 GROUP             0 ****  ****    0  
     2 RES2       86 GROUP             0 ****  ****    0  
@<TRIPOS>CRYSIN
    7.8057   13.8253   16.6288   68.5850   85.2660   88.3907     2     1
