@<TRIPOS>MOLECULE
YELLIO
    90    95     2     0     0
SMALL
USER_CHARGES
****
Generated from the CSD

@<TRIPOS>ATOM
     1 Fe1      5.3945   6.2678   5.0543   Fe        1 RES1   1.0000
     2 O1       6.3330   6.1589   6.6648   O.3       1 RES1   0.0000
     3 O2       4.4528   6.1337   3.4394   O.3       1 RES1   0.0000
     4 N1       8.1669   7.9030  10.6968   N.pl3     1 RES1   0.0000
     5 N2       6.6866   7.5517   4.3691   N.2       1 RES1   0.0000
     6 N3       6.4819   4.7241   4.3242   N.3       1 RES1   0.0000
     7 H1       7.2382   4.5678   4.9596   H         1 RES1   0.0000
     8 N4       4.1888   4.8454   5.8388   N.3       1 RES1   0.0000
     9 H2       3.3896   4.7762   5.2418   H         1 RES1   0.0000
    10 N5       4.1787   7.6547   5.6808   N.2       1 RES1   0.0000
    11 N6       2.8934   7.8346  -0.6963   N.pl3     1 RES1   0.0000
    12 C1       6.9359   7.1710   7.2745   C.ar      1 RES1   0.0000
    13 C2       7.1766   7.0713   8.6497   C.ar      1 RES1   0.0000
    14 H3       6.8341   6.3217   9.1218   H         1 RES1   0.0000
    15 C3       7.9086   8.0411   9.3533   C.ar      1 RES1   0.0000
    16 C4       8.3696   9.1800   8.6224   C.ar      1 RES1   0.0000
    17 H4       8.8619   9.8611   9.0662   H         1 RES1   0.0000
    18 C5       8.1029   9.2938   7.2812   C.ar      1 RES1   0.0000
    19 H5       8.4138  10.0617   6.8173   H         1 RES1   0.0000
    20 C6       7.3834   8.3126   6.5616   C.ar      1 RES1   0.0000
    21 C7       7.8234   6.6570  11.3811   C.3       1 RES1   0.0000
    22 H6       8.4525   6.5223  12.1338   H         1 RES1   0.0000
    23 H7       7.9442   5.9029  10.7507   H         1 RES1   0.0000
    24 C8       6.4015   6.6216  11.9196   C.3       1 RES1   0.0000
    25 H8       5.7705   6.7838  11.1868   H         1 RES1   0.0000
    26 H9       6.2942   7.3147  12.6041   H         1 RES1   0.0000
    27 H10      6.2237   5.7417  12.3156   H         1 RES1   0.0000
    28 C9       9.1476   8.7446  11.3846   C.3       1 RES1   0.0000
    29 H11      8.9467   8.7501  12.3540   H         1 RES1   0.0000
    30 H12      9.0658   9.6743  11.0521   H         1 RES1   0.0000
    31 C10     10.5833   8.2635  11.1746   C.3       1 RES1   0.0000
    32 H13     10.8357   8.3903  10.2355   H         1 RES1   0.0000
    33 H14     10.6456   7.3127  11.4049   H         1 RES1   0.0000
    34 H15     11.1874   8.7796  11.7490   H         1 RES1   0.0000
    35 C11      7.3630   8.3604   5.1323   C.2       1 RES1   0.0000
    36 H16      7.8818   9.0333   4.7073   H         1 RES1   0.0000
    37 C12      7.1471   7.4368   2.9719   C.3       1 RES1   0.0000
    38 H17      7.7296   8.2035   2.7449   H         1 RES1   0.0000
    39 H18      6.3697   7.4425   2.3579   H         1 RES1   0.0000
    40 C13      7.9246   6.1265   2.8152   C.3       1 RES1   0.0000
    41 H19      8.3518   6.1153   1.9218   H         1 RES1   0.0000
    42 H20      8.6463   6.1015   3.4931   H         1 RES1   0.0000
    43 C14      7.0690   4.8775   2.9646   C.3       1 RES1   0.0000
    44 H21      6.3355   4.9099   2.3002   H         1 RES1   0.0000
    45 H22      7.6234   4.0821   2.7641   H         1 RES1   0.0000
    46 C15      5.5958   3.5321   4.3886   C.3       1 RES1   0.0000
    47 H23      6.1268   2.7037   4.2862   H         1 RES1   0.0000
    48 H24      4.9209   3.5669   3.6641   H         1 RES1   0.0000
    49 C16      4.9168   3.5567   5.7420   C.3       1 RES1   0.0000
    50 H25      4.2865   2.7981   5.8232   H         1 RES1   0.0000
    51 H26      5.5894   3.4863   6.4645   H         1 RES1   0.0000
    52 C17      3.6833   5.0751   7.2181   C.3       1 RES1   0.0000
    53 H27      4.4490   5.0790   7.8455   H         1 RES1   0.0000
    54 H28      3.0881   4.3259   7.4714   H         1 RES1   0.0000
    55 C18      2.9207   6.3827   7.3590   C.3       1 RES1   0.0000
    56 H29      2.5521   6.4358   8.2773   H         1 RES1   0.0000
    57 H30      2.1559   6.3728   6.7296   H         1 RES1   0.0000
    58 C19      3.7540   7.6388   7.0935   C.3       1 RES1   0.0000
    59 H31      3.2157   8.4453   7.2918   H         1 RES1   0.0000
    60 H32      4.5487   7.6451   7.6831   H         1 RES1   0.0000
    61 C20      3.5229   8.4446   4.8850   C.2       1 RES1   0.0000
    62 H33      3.0307   9.1532   5.2824   H         1 RES1   0.0000
    63 C21      3.4825   8.3339   3.4580   C.ar      1 RES1   0.0000
    64 C22      2.8223   9.3152   2.6856   C.ar      1 RES1   0.0000
    65 H34      2.5066  10.1010   3.1168   H         1 RES1   0.0000
    66 C23      2.6187   9.1745   1.3337   C.ar      1 RES1   0.0000
    67 H35      2.1801   9.8631   0.8487   H         1 RES1   0.0000
    68 C24      3.0633   7.9960   0.6524   C.ar      1 RES1   0.0000
    69 C25      3.6951   7.0125   1.4265   C.ar      1 RES1   0.0000
    70 H36      3.9931   6.2195   0.9983   H         1 RES1   0.0000
    71 C26      3.9037   7.1499   2.7979   C.ar      1 RES1   0.0000
    72 C27      2.0573   8.7287  -1.4900   C.3       1 RES1   0.0000
    73 H37      2.3383   8.6793  -2.4370   H         1 RES1   0.0000
    74 H38      2.1941   9.6586  -1.1822   H         1 RES1   0.0000
    75 C28      0.5800   8.3834  -1.3897   C.3       1 RES1   0.0000
    76 H39      0.0642   8.9841  -1.9667   H         1 RES1   0.0000
    77 H40      0.2825   8.4866  -0.4618   H         1 RES1   0.0000
    78 H41      0.4413   7.4563  -1.6760   H         1 RES1   0.0000
    79 C29      3.2789   6.5748  -1.3322   C.3       1 RES1   0.0000
    80 H42      2.7805   6.4810  -2.1826   H         1 RES1   0.0000
    81 H43      3.0131   5.8242  -0.7418   H         1 RES1   0.0000
    82 C30      4.7713   6.4690  -1.6217   C.3       1 RES1   0.0000
    83 H44      5.0352   7.1830  -2.2382   H         1 RES1   0.0000
    84 H45      4.9637   5.5981  -2.0266   H         1 RES1   0.0000
    85 H46      5.2730   6.5577  -0.7846   H         1 RES1   0.0000
    86 B1       2.4189  12.1835   5.4361   B         2 RES2  -1.0000
    87 F1       1.3746  11.4705   4.8456   F         2 RES2   0.0000
    88 F2       2.7516  11.6176   6.6572   F         2 RES2   0.0000
    89 F3       3.5358  12.1249   4.6090   F         2 RES2   0.0000
    90 F4       2.0529  13.5124   5.6118   F         2 RES2   0.0000
@<TRIPOS>BOND
     1     1     2    1
     2     2    12    1
     3     3     1    1
     4     4    15    1
     5     5     1    1
     6     6     1    1
     7     7     6    1
     8     8     1    1
     9     9     8    1
    10    10     1    1
    11    11    68    1
    12    12    13   ar
    13    13    14    1
    14    15    13   ar
    15    16    15   ar
    16    17    16    1
    17    18    16   ar
    18    19    18    1
    19    20    12   ar
    20    21     4    1
    21    22    21    1
    22    23    21    1
    23    24    21    1
    24    25    24    1
    25    26    24    1
    26    27    24    1
    27    28     4    1
    28    29    28    1
    29    30    28    1
    30    31    28    1
    31    32    31    1
    32    33    31    1
    33    34    31    1
    34    35     5    2
    35    36    35    1
    36    37     5    1
    37    38    37    1
    38    39    37    1
    39    40    37    1
    40    41    40    1
    41    42    40    1
    42    43     6    1
    43    44    43    1
    44    45    43    1
    45    46     6    1
    46    47    46    1
    47    48    46    1
    48    49     8    1
    49    50    49    1
    50    51    49    1
    51    52     8    1
    52    53    52    1
    53    54    52    1
    54    55    52    1
    55    56    55    1
    56    57    55    1
    57    58    10    1
    58    59    58    1
    59    60    58    1
    60    61    10    2
    61    62    61    1
    62    63    61    1
    63    64    63   ar
    64    65    64    1
    65    66    64   ar
    66    67    66    1
    67    68    66   ar
    68    69    68   ar
    69    70    69    1
    70    71     3    1
    71    72    11    1
    72    73    72    1
    73    74    72    1
    74    75    72    1
    75    76    75    1
    76    77    75    1
    77    78    75    1
    78    79    11    1
    79    80    79    1
    80    81    79    1
    81    82    79    1
    82    83    82    1
    83    84    82    1
    84    85    82    1
    85    18    20   ar
    86    20    35    1
    87    40    43    1
    88    46    49    1
    89    55    58    1
    90    63    71   ar
    91    69    71   ar
    92    86    87    1
    93    88    86    1
    94    89    86    1
    95    90    86    1
@<TRIPOS>SUBSTRUCTURE
     1 RES1        1 GROUP             0 ****  ****    0  
     2 RES2       86 GROUP             0 ****  ****    0  
@<TRIPOS>CRYSIN
    7.6682   19.6632   21.3813   90.0000   91.0870   90.0000   231     1
