@<TRIPOS>MOLECULE
YENJOQ
    65    61     4     0     0
SMALL
NO_CHARGES
****
Generated from the CSD

@<TRIPOS>ATOM
     1 Ho1      3.2671   8.8392   4.5511   Ho        1 RES1   0.0000
     2 Fe1      3.3202  13.2531   7.6471   Fe        1 RES1   0.0000
     3 O1       3.4673   8.0484   6.7652   O.3       1 RES1   0.0000
     4 O2       5.5401   8.7867   5.2477   O.3       1 RES1   0.0000
     5 O3       1.7362   9.4795   2.8964   O.3       1 RES1   0.0000
     6 C1       3.1461  11.8163   6.3474   C.1       1 RES1   0.0000
     7 N1       3.0467  10.9846   5.6392   N.1       1 RES1   0.0000
     8 C2       2.1283  12.2562   8.8354   C.1       1 RES1   0.0000
     9 N2       1.4060  11.6658   9.4556   N.1       1 RES1   0.0000
    10 C3       1.7659  14.2180   7.0481   C.1       1 RES1   0.0000
    11 N3       0.8488  14.8849   6.7409   N.1       1 RES1   0.0000
    12 C4       4.8758  12.3392   8.3446   C.1       1 RES1   0.0000
    13 N4       5.7272  11.7424   8.8036   N.1       1 RES1   0.0000
    14 C5       4.4708  14.2868   6.4224   C.1       1 RES1   0.0000
    15 N5       5.1351  14.7565   5.6561   N.1       1 RES1   0.0000
    16 C6       3.6543  14.5696   9.0265   C.1       1 RES1   0.0000
    17 N6       3.8826  15.3884   9.7965   N.1       1 RES1   0.0000
    18 O4       3.4853   6.8651   3.5390   O.2       1 RES1   0.0000
    19 C7       3.8439   5.8180   3.2149   C.2       1 RES1   0.0000
    20 C8       5.0564   5.0213   3.6908   C.3       1 RES1   0.0000
    21 H1       5.4176   5.4936   4.4496   H         1 RES1   0.0000
    22 H2       4.6991   4.1805   3.9812   H         1 RES1   0.0000
    23 H3       5.7504   4.8734   3.0482   H         1 RES1   0.0000
    24 N7       3.3021   5.2328   2.0271   N.am      1 RES1   0.0000
    25 C9       2.2831   6.0853   1.4426   C.3       1 RES1   0.0000
    26 H4       2.2070   6.8755   1.9690   H         1 RES1   0.0000
    27 H5       2.5205   6.3201   0.5377   H         1 RES1   0.0000
    28 H6       1.4344   5.6234   1.4276   H         1 RES1   0.0000
    29 C10      3.7149   4.0612   1.2927   C.3       1 RES1   0.0000
    30 H7       4.4076   3.6317   1.8098   H         1 RES1   0.0000
    31 H8       2.9345   3.5045   1.2908   H         1 RES1   0.0000
    32 H9       4.0206   4.2000   0.4009   H         1 RES1   0.0000
    33 O5       4.4050   9.7767   2.9133   O.2       1 RES1   0.0000
    34 C11      5.2241   9.8857   2.0215   C.2       1 RES1   0.0000
    35 C12      5.6498   8.9657   0.8993   C.3       1 RES1   0.0000
    36 H10      5.1893   8.1236   0.9798   H         1 RES1   0.0000
    37 H11      5.4060   9.3822   0.0712   H         1 RES1   0.0000
    38 H12      6.5978   8.8074   0.9105   H         1 RES1   0.0000
    39 N8       5.8974  11.1598   1.9728   N.am      1 RES1   0.0000
    40 C13      6.9139  11.5088   0.9986   C.3       1 RES1   0.0000
    41 H13      7.0300  10.7186   0.4590   H         1 RES1   0.0000
    42 H14      6.5927  12.2237   0.4515   H         1 RES1   0.0000
    43 H15      7.7639  11.7528   1.3808   H         1 RES1   0.0000
    44 C14      5.4434  12.1576   2.9208   C.3       1 RES1   0.0000
    45 H16      4.8049  11.7541   3.5166   H         1 RES1   0.0000
    46 H17      6.2083  12.4443   3.4210   H         1 RES1   0.0000
    47 H18      5.0383  12.9166   2.4899   H         1 RES1   0.0000
    48 O6       1.2448   8.1833   5.2177   O.2       1 RES1   0.0000
    49 C15      0.1935   8.2132   5.7891   C.2       1 RES1   0.0000
    50 C16     -0.5418   9.3109   6.5385   C.3       1 RES1   0.0000
    51 H19     -0.0142  10.1101   6.4879   H         1 RES1   0.0000
    52 H20     -1.3802   9.4549   6.0851   H         1 RES1   0.0000
    53 H21     -0.7107   9.0916   7.4547   H         1 RES1   0.0000
    54 N9      -0.5869   7.0065   5.7760   N.am      1 RES1   0.0000
    55 C17     -1.9052   6.9676   6.3699   C.3       1 RES1   0.0000
    56 H22     -2.0819   7.8161   6.7821   H         1 RES1   0.0000
    57 H23     -2.5385   6.8158   5.6655   H         1 RES1   0.0000
    58 H24     -1.9826   6.2721   7.0256   H         1 RES1   0.0000
    59 C18      0.0258   5.8452   5.1409   C.3       1 RES1   0.0000
    60 H25      0.9145   6.1112   4.8842   H         1 RES1   0.0000
    61 H26      0.0787   5.0784   5.7160   H         1 RES1   0.0000
    62 H27     -0.4773   5.6221   4.3559   H         1 RES1   0.0000
    63 O7      -0.6862  10.4812  10.8176   O.3       2 RES2   0.0000
    64 O8       1.6446   6.8223   8.3258   O.3       3 RES3   0.0000
    65 O9       2.5540   4.4245   7.1380   O.3       4 RES4   0.0000
@<TRIPOS>BOND
     1     1     3    1
     2     2     6    1
     3     4     1    1
     4     5     1    1
     5     6     7    3
     6     7     1    1
     7     8     2    1
     8     9     8    3
     9    10     2    1
    10    11    10    3
    11    12     2    1
    12    13    12    3
    13    14     2    1
    14    15    14    3
    15    16     2    1
    16    17    16    3
    17    18     1    1
    18    19    18    2
    19    20    19    1
    20    21    20    1
    21    22    20    1
    22    23    20    1
    23    24    19   am
    24    25    24    1
    25    26    25    1
    26    27    25    1
    27    28    25    1
    28    29    24    1
    29    30    29    1
    30    31    29    1
    31    32    29    1
    32    33     1    1
    33    34    33    2
    34    35    34    1
    35    36    35    1
    36    37    35    1
    37    38    35    1
    38    39    34   am
    39    40    39    1
    40    41    40    1
    41    42    40    1
    42    43    40    1
    43    44    39    1
    44    45    44    1
    45    46    44    1
    46    47    44    1
    47    48     1    1
    48    49    48    2
    49    50    49    1
    50    51    50    1
    51    52    50    1
    52    53    50    1
    53    54    49   am
    54    55    54    1
    55    56    55    1
    56    57    55    1
    57    58    55    1
    58    59    54    1
    59    60    59    1
    60    61    59    1
    61    62    59    1
@<TRIPOS>SUBSTRUCTURE
     1 RES1        1 GROUP             0 ****  ****    0  
     2 RES2       63 GROUP             0 ****  ****    0  
     3 RES3       64 GROUP             0 ****  ****    0  
     4 RES4       65 GROUP             0 ****  ****    0  
@<TRIPOS>CRYSIN
   12.8990   12.9750   18.7350   90.0000   90.0000   90.0000    19     1
