@<TRIPOS>MOLECULE
YEQPEQ
    89    96     1     0     0
SMALL
NO_CHARGES
****
Generated from the CSD

@<TRIPOS>ATOM
     1 Fe1      8.1059   4.8530   4.8129   Fe        1 RES1   0.0000
     2 N1       8.1182   2.8766   5.1931   N.2       1 RES1   0.0000
     3 N2       8.1283   5.2363   6.7898   N.2       1 RES1   0.0000
     4 C1       8.0188   2.0207   2.9057   C.2       1 RES1   0.0000
     5 H1       7.9864   1.2341   2.3737   H         1 RES1   0.0000
     6 C2       8.1291   2.9469   7.6418   C.2       1 RES1   0.0000
     7 H2       8.1208   2.4149   8.4283   H         1 RES1   0.0000
     8 C3       8.0800   1.8482   4.2805   C.2       1 RES1   0.0000
     9 C4       8.0945   2.2759   6.4271   C.2       1 RES1   0.0000
    10 C5       8.1741   4.3217   7.8132   C.2       1 RES1   0.0000
    11 C6       8.2110   6.4709   7.3893   C.2       1 RES1   0.0000
    12 C7       8.0441   0.5628   4.9561   C.2       1 RES1   0.0000
    13 C8       8.0401   0.8343   6.2924   C.2       1 RES1   0.0000
    14 C9       8.2980   4.9939   9.0969   C.2       1 RES1   0.0000
    15 C10      8.3301   6.3301   8.8252   C.2       1 RES1   0.0000
    16 C11      8.0235  -0.7875   4.2991   C.3       1 RES1   0.0000
    17 H3       7.5562  -0.7130   3.4296   H         1 RES1   0.0000
    18 H4       7.5064  -1.4123   4.8668   H         1 RES1   0.0000
    19 C12      9.4163  -1.3717   4.0634   C.3       1 RES1   0.0000
    20 H5       9.3350  -2.2409   3.6193   H         1 RES1   0.0000
    21 H6       9.8727  -1.4855   4.9235   H         1 RES1   0.0000
    22 H7       9.9347  -0.7631   3.4970   H         1 RES1   0.0000
    23 C13      7.9923  -0.1363   7.4300   C.3       1 RES1   0.0000
    24 H8       7.6392  -1.0015   7.1028   H         1 RES1   0.0000
    25 H9       7.3690   0.2043   8.1193   H         1 RES1   0.0000
    26 C14      9.3638  -0.3657   8.0667   C.3       1 RES1   0.0000
    27 H10      9.2727  -0.9756   8.8277   H         1 RES1   0.0000
    28 H11      9.7278   0.4901   8.3753   H         1 RES1   0.0000
    29 H12      9.9695  -0.7586   7.4041   H         1 RES1   0.0000
    30 C15      8.3862   4.3354  10.4421   C.3       1 RES1   0.0000
    31 H13      9.0403   4.8284  10.9983   H         1 RES1   0.0000
    32 H14      8.7242   3.4122  10.3255   H         1 RES1   0.0000
    33 C16      7.0471   4.2826  11.1821   C.3       1 RES1   0.0000
    34 H15      7.1643   3.8196  12.0379   H         1 RES1   0.0000
    35 H16      6.3918   3.7991  10.6374   H         1 RES1   0.0000
    36 H17      6.7275   5.1950  11.3449   H         1 RES1   0.0000
    37 C17      8.4834   7.4624   9.7948   C.3       1 RES1   0.0000
    38 H18      9.0630   8.1555   9.3899   H         1 RES1   0.0000
    39 H19      8.9370   7.1283  10.6095   H         1 RES1   0.0000
    40 C18      7.1523   8.1012  10.1952   C.3       1 RES1   0.0000
    41 H20      7.3194   8.8539  10.7991   H         1 RES1   0.0000
    42 H21      6.5941   7.4356  10.6499   H         1 RES1   0.0000
    43 H22      6.6898   8.4230   9.3928   H         1 RES1   0.0000
    44 C19      9.9573   4.9630   4.8774   C.1       1 RES1   0.0000
    45 O1      11.0620   5.1187   4.9930   O.2       1 RES1   0.0000
    46 N1A      8.0936   6.8293   4.4326   N.2       1 RES1   0.0000
    47 N2A      8.0835   4.4696   2.8359   N.2       1 RES1   0.0000
    48 C1A      8.1929   7.6852   6.7200   C.2       1 RES1   0.0000
    49 H1A      8.2254   8.4719   7.2520   H         1 RES1   0.0000
    50 C2A      8.0827   6.7590   1.9839   C.2       1 RES1   0.0000
    51 H2A      8.0910   7.2910   1.1974   H         1 RES1   0.0000
    52 C3A      8.1318   7.8577   5.3453   C.2       1 RES1   0.0000
    53 C4A      8.1173   7.4300   3.1986   C.2       1 RES1   0.0000
    54 C5A      8.0377   5.3842   1.8125   C.2       1 RES1   0.0000
    55 C6A      8.0008   3.2351   2.2364   C.2       1 RES1   0.0000
    56 C7A      8.1677   9.1431   4.6696   C.2       1 RES1   0.0000
    57 C8A      8.1716   8.8716   3.3333   C.2       1 RES1   0.0000
    58 C9A      7.9138   4.7120   0.5288   C.2       1 RES1   0.0000
    59 C10A     7.8816   3.3758   0.8005   C.2       1 RES1   0.0000
    60 C11A     8.1883  10.4934   5.3266   C.3       1 RES1   0.0000
    61 H3A      8.6556  10.4189   6.1961   H         1 RES1   0.0000
    62 H4A      8.7054  11.1183   4.7590   H         1 RES1   0.0000
    63 C12A     6.7955  11.0776   5.5623   C.3       1 RES1   0.0000
    64 H5A      6.8768  11.9468   6.0064   H         1 RES1   0.0000
    65 H6A      6.3391  11.1914   4.7022   H         1 RES1   0.0000
    66 H7A      6.2771  10.4690   6.1287   H         1 RES1   0.0000
    67 C13A     8.2195   9.8422   2.1957   C.3       1 RES1   0.0000
    68 H8A      8.5726  10.7074   2.5229   H         1 RES1   0.0000
    69 H9A      8.8427   9.5016   1.5064   H         1 RES1   0.0000
    70 C14A     6.8479  10.0717   1.5590   C.3       1 RES1   0.0000
    71 H10A     6.9391  10.6815   0.7980   H         1 RES1   0.0000
    72 H11A     6.4840   9.2158   1.2504   H         1 RES1   0.0000
    73 H12A     6.2423  10.4645   2.2216   H         1 RES1   0.0000
    74 C15A     7.8256   5.3705  -0.8164   C.3       1 RES1   0.0000
    75 H13A     7.1715   4.8775  -1.3726   H         1 RES1   0.0000
    76 H14A     7.4875   6.2937  -0.6998   H         1 RES1   0.0000
    77 C16A     9.1647   5.4233  -1.5564   C.3       1 RES1   0.0000
    78 H15A     9.0474   5.8863  -2.4122   H         1 RES1   0.0000
    79 H16A     9.8200   5.9069  -1.0117   H         1 RES1   0.0000
    80 H17A     9.4843   4.5110  -1.7192   H         1 RES1   0.0000
    81 C17A     7.7283   2.2436  -0.1691   C.3       1 RES1   0.0000
    82 H18A     7.1487   1.5505   0.2358   H         1 RES1   0.0000
    83 H19A     7.2748   2.5777  -0.9837   H         1 RES1   0.0000
    84 C18A     9.0595   1.6047  -0.5695   C.3       1 RES1   0.0000
    85 H20A     8.8924   0.8520  -1.1734   H         1 RES1   0.0000
    86 H21A     9.6177   2.2704  -1.0242   H         1 RES1   0.0000
    87 H22A     9.5220   1.2829   0.2329   H         1 RES1   0.0000
    88 C19A     6.2545   4.7429   4.7483   C.1       1 RES1   0.0000
    89 O1A      5.1498   4.5872   4.6327   O.2       1 RES1   0.0000
@<TRIPOS>BOND
     1     1     2    1
     2     2     8    1
     3     3     1    1
     4     4     5    1
     5     6     7    1
     6     8     4    2
     7     9     2    1
     8    10     3    2
     9    11     3    1
    10    12     8    1
    11    13     9    1
    12    14    10    1
    13    15    11    1
    14    16    12    1
    15    17    16    1
    16    18    16    1
    17    19    16    1
    18    20    19    1
    19    21    19    1
    20    22    19    1
    21    23    13    1
    22    24    23    1
    23    25    23    1
    24    26    23    1
    25    27    26    1
    26    28    26    1
    27    29    26    1
    28    30    14    1
    29    31    30    1
    30    32    30    1
    31    33    30    1
    32    34    33    1
    33    35    33    1
    34    36    33    1
    35    37    15    1
    36    38    37    1
    37    39    37    1
    38    40    37    1
    39    41    40    1
    40    42    40    1
    41    43    40    1
    42    44     1    1
    43    45    44    3
    44    46     1    1
    45    47     1    1
    46    48    11    2
    47    49    48    1
    48    50    51    1
    49    52    46    1
    50    53    46    1
    51    54    47    1
    52    55     4    1
    53    56    52    2
    54    57    53    2
    55    58    54    1
    56    59    55    1
    57    60    56    1
    58    61    60    1
    59    62    60    1
    60    63    60    1
    61    64    63    1
    62    65    63    1
    63    66    63    1
    64    67    57    1
    65    68    67    1
    66    69    67    1
    67    70    67    1
    68    71    70    1
    69    72    70    1
    70    73    70    1
    71    74    58    1
    72    75    74    1
    73    76    74    1
    74    77    74    1
    75    78    77    1
    76    79    77    1
    77    80    77    1
    78    81    59    1
    79    82    81    1
    80    83    81    1
    81    84    81    1
    82    85    84    1
    83    86    84    1
    84    87    84    1
    85    88     1    1
    86    89    88    3
    87     6     9    2
    88     6    10    1
    89    12    13    2
    90    14    15    2
    91    47    55    2
    92    48    52    1
    93    50    53    1
    94    50    54    2
    95    56    57    1
    96    58    59    2
@<TRIPOS>SUBSTRUCTURE
     1 RES1        1 GROUP             0 ****  ****    0  
@<TRIPOS>CRYSIN
    8.6165   10.1648   10.4369   81.2450   67.2870   69.4660     2     1
