@<TRIPOS>MOLECULE
YEQTOE
    75    78     1     0     0
SMALL
NO_CHARGES
****
Generated from the CSD

@<TRIPOS>ATOM
     1 Fe1      2.4540  10.5497   2.7995   Fe        1 RES1   0.0000
     2 H1       0.9917  10.9367   2.6398   H         1 RES1   0.0000
     3 P1       2.0433   9.4634   0.9569   P.3       1 RES1   0.0000
     4 P2       2.5542  12.1713   4.2573   P.3       1 RES1   0.0000
     5 Si1      1.3497   9.1335   4.1861   Si        1 RES1   0.0000
     6 H2      -0.0034   8.8698   3.8264   H         1 RES1   0.0000
     7 H3       1.1194   9.5874   5.5481   H         1 RES1   0.0000
     8 O1       4.9374   9.1845   3.4839   O.2       1 RES1   0.0000
     9 N1       3.0456  12.0538   1.5215   N.ar      1 RES1   0.0000
    10 C1       1.9852  10.8273  -0.2869   C.3       1 RES1   0.0000
    11 H4       1.0254  11.1185  -0.2616   H         1 RES1   0.0000
    12 H5       2.2005  10.5975  -1.1729   H         1 RES1   0.0000
    13 C2       2.8571  11.9527   0.1792   C.ar      1 RES1   0.0000
    14 C3       3.4119  12.8612  -0.7109   C.ar      1 RES1   0.0000
    15 H6       3.3127  12.7173  -1.6721   H         1 RES1   0.0000
    16 C4       4.1334  13.9268  -0.2178   C.ar      1 RES1   0.0000
    17 H7       4.4716  14.5372  -0.8002   H         1 RES1   0.0000
    18 C5       4.2554  14.0843   1.1447   C.ar      1 RES1   0.0000
    19 H8       4.6720  14.7817   1.5148   H         1 RES1   0.0000
    20 C6       3.7055  13.1412   1.9937   C.ar      1 RES1   0.0000
    21 C7       3.8015  13.2723   3.4745   C.3       1 RES1   0.0000
    22 H9       3.7082  14.1341   3.6845   H         1 RES1   0.0000
    23 H10      4.6507  12.9495   3.7785   H         1 RES1   0.0000
    24 C8       0.4714   8.5247   0.6533   C.3       1 RES1   0.0000
    25 H11      0.4785   7.8535   1.2755   H         1 RES1   0.0000
    26 C9       0.3874   7.8372  -0.7034   C.3       1 RES1   0.0000
    27 H12      1.0269   7.1518  -0.8138   H         1 RES1   0.0000
    28 H13      0.5286   8.3991  -1.3969   H         1 RES1   0.0000
    29 H14     -0.5216   7.4345  -0.7403   H         1 RES1   0.0000
    30 C10     -0.7641   9.3973   0.8711   C.3       1 RES1   0.0000
    31 H15     -0.7563   9.9413   1.7388   H         1 RES1   0.0000
    32 H16     -0.8710  10.0409   0.1847   H         1 RES1   0.0000
    33 H17     -1.5572   8.8476   0.8634   H         1 RES1   0.0000
    34 C11      3.3350   8.3618   0.2163   C.3       1 RES1   0.0000
    35 H18      3.0040   8.1607  -0.6275   H         1 RES1   0.0000
    36 C12      4.6609   9.1099   0.0528   C.3       1 RES1   0.0000
    37 H19      4.9838   9.4731   0.8788   H         1 RES1   0.0000
    38 H20      4.5289   9.9045  -0.5557   H         1 RES1   0.0000
    39 H21      5.3622   8.5404  -0.3283   H         1 RES1   0.0000
    40 C13      3.4886   7.0738   1.0074   C.3       1 RES1   0.0000
    41 H22      3.7357   7.2563   1.9081   H         1 RES1   0.0000
    42 H23      2.5729   6.5780   1.0310   H         1 RES1   0.0000
    43 H24      4.0607   6.4342   0.5557   H         1 RES1   0.0000
    44 C14      1.0998  13.2943   4.4739   C.3       1 RES1   0.0000
    45 H25      1.4131  14.0407   5.0095   H         1 RES1   0.0000
    46 C15      0.5378  13.7532   3.1268   C.3       1 RES1   0.0000
    47 H26     -0.1839  14.3651   3.3408   H         1 RES1   0.0000
    48 H27      0.1852  12.9274   2.5954   H         1 RES1   0.0000
    49 H28      1.2147  14.2300   2.6210   H         1 RES1   0.0000
    50 C16      0.0200  12.6349   5.3180   C.3       1 RES1   0.0000
    51 H29     -0.7455  13.2592   5.4301   H         1 RES1   0.0000
    52 H30     -0.3306  11.8337   4.8522   H         1 RES1   0.0000
    53 H31      0.3303  12.4973   6.1824   H         1 RES1   0.0000
    54 C17      3.1670  11.9904   5.9954   C.3       1 RES1   0.0000
    55 H32      2.4597  11.4884   6.4218   H         1 RES1   0.0000
    56 C18      3.3427  13.3179   6.7292   C.3       1 RES1   0.0000
    57 H33      3.5479  13.1351   7.5639   H         1 RES1   0.0000
    58 H34      2.4415  13.7962   6.7740   H         1 RES1   0.0000
    59 H35      3.9502  13.8859   6.2901   H         1 RES1   0.0000
    60 C19      4.4533  11.1692   6.0597   C.3       1 RES1   0.0000
    61 H36      4.7105  11.1001   7.0270   H         1 RES1   0.0000
    62 H37      5.1187  11.6064   5.5720   H         1 RES1   0.0000
    63 H38      4.3018  10.2854   5.7533   H         1 RES1   0.0000
    64 C20      2.0256   7.3851   4.5089   C.ar      1 RES1   0.0000
    65 C21      3.1407   7.1569   5.3192   C.ar      1 RES1   0.0000
    66 H39      3.5154   7.9137   5.7601   H         1 RES1   0.0000
    67 C22      3.6391   5.8795   5.5358   C.ar      1 RES1   0.0000
    68 H40      4.3372   5.7252   6.1414   H         1 RES1   0.0000
    69 C23      3.0441   4.7967   4.9461   C.ar      1 RES1   0.0000
    70 H41      3.4272   3.9569   4.9890   H         1 RES1   0.0000
    71 C24      1.9320   4.9816   4.1518   C.ar      1 RES1   0.0000
    72 H42      1.4923   4.2887   3.7050   H         1 RES1   0.0000
    73 C25      1.4278   6.2608   3.9457   C.ar      1 RES1   0.0000
    74 H43      0.5878   6.3113   3.3955   H         1 RES1   0.0000
    75 C26      3.9764   9.7751   3.1979   C.1       1 RES1   0.0000
@<TRIPOS>BOND
     1     1     2    1
     2     3     1    1
     3     4     1    1
     4     5     1    1
     5     6     5    1
     6     7     5    1
     7     8    75    3
     8     9     1    1
     9    10     3    1
    10    11    10    1
    11    12    10    1
    12    13     9   ar
    13    14    13   ar
    14    15    14    1
    15    16    14   ar
    16    17    16    1
    17    18    16   ar
    18    19    18    1
    19    20     9   ar
    20    21     4    1
    21    22    21    1
    22    23    21    1
    23    24     3    1
    24    25    24    1
    25    26    24    1
    26    27    26    1
    27    28    26    1
    28    29    26    1
    29    30    24    1
    30    31    30    1
    31    32    30    1
    32    33    30    1
    33    34     3    1
    34    35    34    1
    35    36    34    1
    36    37    36    1
    37    38    36    1
    38    39    36    1
    39    40    34    1
    40    41    40    1
    41    42    40    1
    42    43    40    1
    43    44     4    1
    44    45    44    1
    45    46    44    1
    46    47    46    1
    47    48    46    1
    48    49    46    1
    49    50    44    1
    50    51    50    1
    51    52    50    1
    52    53    50    1
    53    54     4    1
    54    55    54    1
    55    56    54    1
    56    57    56    1
    57    58    56    1
    58    59    56    1
    59    60    54    1
    60    61    60    1
    61    62    60    1
    62    63    60    1
    63    64     5    1
    64    65    64   ar
    65    66    65    1
    66    67    65   ar
    67    68    67    1
    68    69    67   ar
    69    70    69    1
    70    71    69   ar
    71    72    71    1
    72    73    64   ar
    73    74    73    1
    74    75     1    1
    75    10    13    1
    76    18    20   ar
    77    20    21    1
    78    71    73   ar
@<TRIPOS>SUBSTRUCTURE
     1 RES1        1 GROUP             0 ****  ****    0  
@<TRIPOS>CRYSIN
   13.2739   12.2884   17.7620   90.0000  105.7230   90.0000    14     1
