@<TRIPOS>MOLECULE
YETTUQ
   114   124     4     0     0
SMALL
USER_CHARGES
****
Generated from the CSD

@<TRIPOS>ATOM
     1 Fe1     -1.2492   5.0343   3.8538   Fe        1 RES1   2.0000
     2 P1      -1.7452   6.5501   5.4678   P.3       1 RES1   0.0000
     3 C1      -0.9677   2.3168   0.7291   C.ar      1 RES1   0.0000
     4 H1      -1.5291   1.9166   0.1048   H         1 RES1   0.0000
     5 C2       0.3911   2.0377   0.6104   C.ar      1 RES1   0.0000
     6 C3       0.9830   1.2924  -0.4486   C.ar      1 RES1   0.0000
     7 H2       0.4467   0.9748  -1.1392   H         1 RES1   0.0000
     8 C4       2.3223   1.0391  -0.4625   C.ar      1 RES1   0.0000
     9 H3       2.6978   0.5599  -1.1654   H         1 RES1   0.0000
    10 C5       3.1311   1.5017   0.5765   C.ar      1 RES1   0.0000
    11 H4       4.0372   1.2979   0.5765   H         1 RES1   0.0000
    12 C6       2.6071   2.2525   1.5986   C.ar      1 RES1   0.0000
    13 H5       3.1581   2.5921   2.2661   H         1 RES1   0.0000
    14 C7       1.2329   2.4967   1.6202   C.ar      1 RES1   0.0000
    15 C8       0.6330   3.3356   2.5929   C.ar      1 RES1   0.0000
    16 C9       1.2805   5.2320   5.4632   C.2       1 RES1   0.0000
    17 H6       2.1251   4.8557   5.5696   H         1 RES1   0.0000
    18 C10      0.8800   6.1756   6.4544   C.ar      1 RES1   0.0000
    19 C11      1.8948   6.4088   7.4302   C.ar      1 RES1   0.0000
    20 H7       2.7033   5.9535   7.3701   H         1 RES1   0.0000
    21 C12      1.6887   7.3102   8.4661   C.ar      1 RES1   0.0000
    22 H8       2.3610   7.4735   9.0874   H         1 RES1   0.0000
    23 C13      0.4915   7.9490   8.5586   C.ar      1 RES1   0.0000
    24 H9       0.3554   8.5548   9.2508   H         1 RES1   0.0000
    25 C14     -0.5086   7.7287   7.6707   C.ar      1 RES1   0.0000
    26 H10     -1.3189   8.1748   7.7755   H         1 RES1   0.0000
    27 C15     -0.3473   6.8512   6.6116   C.ar      1 RES1   0.0000
    28 C16     -2.3782   8.1840   4.9360   C.ar      1 RES1   0.0000
    29 C17     -1.8746   9.4103   5.3553   C.ar      1 RES1   0.0000
    30 H11     -1.1568   9.4378   5.9472   H         1 RES1   0.0000
    31 C18     -2.4380  10.5999   4.8928   C.ar      1 RES1   0.0000
    32 H12     -2.1000  11.4132   5.1950   H         1 RES1   0.0000
    33 C19     -3.4747  10.5926   4.0065   C.ar      1 RES1   0.0000
    34 H13     -3.8446  11.3893   3.7028   H         1 RES1   0.0000
    35 C20     -3.9557   9.3883   3.5733   C.ar      1 RES1   0.0000
    36 H14     -4.6595   9.3754   2.9659   H         1 RES1   0.0000
    37 C21     -3.4280   8.1913   4.0126   C.ar      1 RES1   0.0000
    38 H15     -3.7718   7.3891   3.6951   H         1 RES1   0.0000
    39 C22     -3.0535   6.0398   6.6749   C.ar      1 RES1   0.0000
    40 C23     -4.3972   6.2013   6.4467   C.ar      1 RES1   0.0000
    41 H16     -4.6640   6.6548   5.6806   H         1 RES1   0.0000
    42 C24     -5.3556   5.7295   7.2807   C.ar      1 RES1   0.0000
    43 H17     -6.2546   5.8489   7.0757   H         1 RES1   0.0000
    44 C25     -4.9920   5.0686   8.4430   C.ar      1 RES1   0.0000
    45 H18     -5.6398   4.7731   9.0411   H         1 RES1   0.0000
    46 C26     -3.6689   4.8557   8.6958   C.ar      1 RES1   0.0000
    47 H19     -3.4165   4.3931   9.4619   H         1 RES1   0.0000
    48 C27     -2.6926   5.3201   7.8233   C.ar      1 RES1   0.0000
    49 H20     -1.7954   5.1513   8.0006   H         1 RES1   0.0000
    50 N1      -1.5373   3.0695   1.6140   N.ar      1 RES1   0.0000
    51 N2      -0.7038   3.6441   2.5158   N.ar      1 RES1   0.0000
    52 N3       1.2744   3.9543   3.6149   N.pl3     1 RES1   0.0000
    53 H21      2.1070   3.7983   3.7583   H         1 RES1   0.0000
    54 N4       0.5913   4.8300   4.4165   N.2       1 RES1   0.0000
    55 P1A     -0.7532   6.5501   2.2399   P.3       1 RES1   0.0000
    56 C1A     -1.5308   2.3168   6.9785   C.ar      1 RES1   0.0000
    57 H1A     -0.9694   1.9166   7.6029   H         1 RES1   0.0000
    58 C2A     -2.8896   2.0377   7.0972   C.ar      1 RES1   0.0000
    59 C3A     -3.4814   1.2924   8.1563   C.ar      1 RES1   0.0000
    60 H2A     -2.9452   0.9748   8.8469   H         1 RES1   0.0000
    61 C4A     -4.8207   1.0391   8.1701   C.ar      1 RES1   0.0000
    62 H3A     -5.1963   0.5599   8.8731   H         1 RES1   0.0000
    63 C5A     -5.6295   1.5017   7.1311   C.ar      1 RES1   0.0000
    64 H4A     -6.5356   1.2979   7.1311   H         1 RES1   0.0000
    65 C6A     -5.1055   2.2525   6.1091   C.ar      1 RES1   0.0000
    66 H5A     -5.6565   2.5921   5.4416   H         1 RES1   0.0000
    67 C7A     -3.7313   2.4967   6.0875   C.ar      1 RES1   0.0000
    68 C8A     -3.1314   3.3356   5.1148   C.ar      1 RES1   0.0000
    69 C9A     -3.7789   5.2320   2.2445   C.2       1 RES1   0.0000
    70 H6A     -4.6235   4.8557   2.1381   H         1 RES1   0.0000
    71 C10A    -3.3784   6.1756   1.2533   C.ar      1 RES1   0.0000
    72 C11A    -4.3932   6.4088   0.2775   C.ar      1 RES1   0.0000
    73 H7A     -5.2017   5.9535   0.3376   H         1 RES1   0.0000
    74 C12A    -4.1872   7.3102  -0.7584   C.ar      1 RES1   0.0000
    75 H8A     -4.8594   7.4735  -1.3797   H         1 RES1   0.0000
    76 C13A    -2.9899   7.9490  -0.8509   C.ar      1 RES1   0.0000
    77 H9A     -2.8538   8.5548  -1.5431   H         1 RES1   0.0000
    78 C14A    -1.9898   7.7287   0.0370   C.ar      1 RES1   0.0000
    79 H10A    -1.1795   8.1748  -0.0678   H         1 RES1   0.0000
    80 C15A    -2.1512   6.8512   1.0960   C.ar      1 RES1   0.0000
    81 C16A    -0.1203   8.1840   2.7717   C.ar      1 RES1   0.0000
    82 C17A    -0.6238   9.4103   2.3524   C.ar      1 RES1   0.0000
    83 H11A    -1.3416   9.4378   1.7604   H         1 RES1   0.0000
    84 C18A    -0.0604  10.5999   2.8148   C.ar      1 RES1   0.0000
    85 H12A    -0.3984  11.4132   2.5127   H         1 RES1   0.0000
    86 C19A     0.9762  10.5926   3.7012   C.ar      1 RES1   0.0000
    87 H13A     1.3461  11.3893   4.0049   H         1 RES1   0.0000
    88 C20A     1.4573   9.3883   4.1344   C.ar      1 RES1   0.0000
    89 H14A     2.1610   9.3754   4.7418   H         1 RES1   0.0000
    90 C21A     0.9296   8.1913   3.6951   C.ar      1 RES1   0.0000
    91 H15A     1.2734   7.3891   4.0126   H         1 RES1   0.0000
    92 C22A     0.5551   6.0398   1.0328   C.ar      1 RES1   0.0000
    93 C23A     1.8987   6.2013   1.2610   C.ar      1 RES1   0.0000
    94 H16A     2.1656   6.6548   2.0271   H         1 RES1   0.0000
    95 C24A     2.8571   5.7295   0.4270   C.ar      1 RES1   0.0000
    96 H17A     3.7562   5.8489   0.6320   H         1 RES1   0.0000
    97 C25A     2.4936   5.0686  -0.7353   C.ar      1 RES1   0.0000
    98 H18A     3.1414   4.7731  -1.3334   H         1 RES1   0.0000
    99 C26A     1.1705   4.8557  -0.9881   C.ar      1 RES1   0.0000
   100 H19A     0.9181   4.3931  -1.7543   H         1 RES1   0.0000
   101 C27A     0.1942   5.3201  -0.1156   C.ar      1 RES1   0.0000
   102 H20A    -0.7030   5.1513  -0.2929   H         1 RES1   0.0000
   103 N1A     -0.9611   3.0695   6.0937   N.ar      1 RES1   0.0000
   104 N2A     -1.7946   3.6441   5.1919   N.ar      1 RES1   0.0000
   105 N3A     -3.7728   3.9543   4.0928   N.pl3     1 RES1   0.0000
   106 H21A    -4.6054   3.7983   3.9494   H         1 RES1   0.0000
   107 N4A     -3.0897   4.8300   3.2912   N.2       1 RES1   0.0000
   108 Cl1      4.7369   5.7075   4.2084   Cl        2 RES2   0.0000
   109 O1       4.0728   4.7125   3.4731   O.2       2 RES2   0.0000
   110 O2       4.0760   6.9522   3.9633   O.3       2 RES2  -1.0000
   111 O3       4.6513   5.4468   5.5727   O.2       2 RES2   0.0000
   112 O4       6.0739   5.7461   3.8292   O.2       2 RES2   0.0000
   113 O5      -3.7476   0.8481  11.5615   O.3       3 RES3   0.0000
   114 O6      -5.9779  -0.2754  11.2733   O.3       4 RES4   0.0000
@<TRIPOS>BOND
     1     1     2    1
     2     2    27    1
     3     3     4    1
     4     5     3   ar
     5     6     5   ar
     6     7     6    1
     7     8     6   ar
     8     9     8    1
     9    10     8   ar
    10    11    10    1
    11    12    10   ar
    12    13    12    1
    13    14     5   ar
    14    15    14   ar
    15    16    17    1
    16    18    16    1
    17    19    18   ar
    18    20    19    1
    19    21    19   ar
    20    22    21    1
    21    23    21   ar
    22    24    23    1
    23    25    23   ar
    24    26    25    1
    25    27    18   ar
    26    28     2    1
    27    29    28   ar
    28    30    29    1
    29    31    29   ar
    30    32    31    1
    31    33    31   ar
    32    34    33    1
    33    35    33   ar
    34    36    35    1
    35    37    28   ar
    36    38    37    1
    37    39     2    1
    38    40    39   ar
    39    41    40    1
    40    42    40   ar
    41    43    42    1
    42    44    42   ar
    43    45    44    1
    44    46    44   ar
    45    47    46    1
    46    48    39   ar
    47    49    48    1
    48    50     3   ar
    49    51     1    1
    50    52    15    1
    51    53    52    1
    52    54     1    1
    53    55     1    1
    54    56    57    1
    55    58    56   ar
    56    59    58   ar
    57    60    59    1
    58    61    59   ar
    59    62    61    1
    60    63    61   ar
    61    64    63    1
    62    65    63   ar
    63    66    65    1
    64    67    58   ar
    65    68    67   ar
    66    69    70    1
    67    71    69    1
    68    72    71   ar
    69    73    72    1
    70    74    72   ar
    71    75    74    1
    72    76    74   ar
    73    77    76    1
    74    78    76   ar
    75    79    78    1
    76    80    55    1
    77    81    55    1
    78    82    81   ar
    79    83    82    1
    80    84    82   ar
    81    85    84    1
    82    86    84   ar
    83    87    86    1
    84    88    86   ar
    85    89    88    1
    86    90    81   ar
    87    91    90    1
    88    92    55    1
    89    93    92   ar
    90    94    93    1
    91    95    93   ar
    92    96    95    1
    93    97    95   ar
    94    98    97    1
    95    99    97   ar
    96   100    99    1
    97   101    92   ar
    98   102   101    1
    99   103    56   ar
   100   104     1    1
   101   105    68    1
   102   106   105    1
   103   107     1    1
   104    12    14   ar
   105    15    51   ar
   106    16    54    2
   107    25    27   ar
   108    35    37   ar
   109    46    48   ar
   110    50    51   ar
   111    52    54    1
   112    65    67   ar
   113    68   104   ar
   114    69   107    2
   115    71    80   ar
   116    78    80   ar
   117    88    90   ar
   118    99   101   ar
   119   103   104   ar
   120   105   107    1
   121   108   109    2
   122   110   108    1
   123   111   108    2
   124   112   108    2
@<TRIPOS>SUBSTRUCTURE
     1 RES1        1 GROUP             0 ****  ****    0  
     2 RES2      108 GROUP             0 ****  ****    0  
     3 RES3      113 GROUP             0 ****  ****    0  
     4 RES4      114 GROUP             0 ****  ****    0  
@<TRIPOS>CRYSIN
   18.0130   18.3580   16.2050   90.0000  107.9600   90.0000    15     1
