@<TRIPOS>MOLECULE
YEWSEB
    91    99     1     0     0
SMALL
NO_CHARGES
****
Generated from the CSD

@<TRIPOS>ATOM
     1 Fe1     15.7518   4.1079   7.2251   Fe        1 RES1   0.0000
     2 H1      15.5362   5.5012   7.8207   H         1 RES1   0.0000
     3 Cl1     16.2629   3.4229   9.4192   Cl        1 RES1   0.0000
     4 P1      15.2746   5.0007   5.3824   P.3       1 RES1   0.0000
     5 P2      13.6115   4.2218   7.7295   P.3       1 RES1   0.0000
     6 P3      15.8137   2.1284   6.1679   P.3       1 RES1   0.0000
     7 P4      17.7555   4.9934   6.9628   P.3       1 RES1   0.0000
     8 C1      13.5652   5.6935   5.3918   C.3       1 RES1   0.0000
     9 H2      13.5605   6.5919   5.8080   H         1 RES1   0.0000
    10 H3      13.2220   5.7736   4.4666   H         1 RES1   0.0000
    11 C2      12.6886   4.7214   6.2064   C.3       1 RES1   0.0000
    12 H4      12.4776   3.9224   5.6634   H         1 RES1   0.0000
    13 H5      11.8376   5.1626   6.4572   H         1 RES1   0.0000
    14 C3      15.4063   3.8434   3.9649   C.3       1 RES1   0.0000
    15 H6      14.7501   4.0933   3.2655   H         1 RES1   0.0000
    16 H7      16.3130   3.8968   3.5710   H         1 RES1   0.0000
    17 C4      15.1350   2.4291   4.4430   C.3       1 RES1   0.0000
    18 H8      15.5501   1.7871   3.8130   H         1 RES1   0.0000
    19 H9      14.1588   2.2667   4.4445   H         1 RES1   0.0000
    20 C5      16.4011   6.3739   4.9565   C.3       1 RES1   0.0000
    21 H10     16.3478   6.5801   3.9900   H         1 RES1   0.0000
    22 H11     16.1646   7.1879   5.4671   H         1 RES1   0.0000
    23 C6      17.8202   5.8933   5.3313   C.3       1 RES1   0.0000
    24 H12     18.4301   6.6698   5.4007   H         1 RES1   0.0000
    25 H13     18.1657   5.2887   4.6275   H         1 RES1   0.0000
    26 C7      13.1246   5.5162   8.9554   C.ar      1 RES1   0.0000
    27 C8      14.0776   6.0813   9.7995   C.ar      1 RES1   0.0000
    28 H14     14.9796   5.7896   9.7508   H         1 RES1   0.0000
    29 C9      13.7182   7.0768  10.7202   C.ar      1 RES1   0.0000
    30 H15     14.3767   7.4454  11.2972   H         1 RES1   0.0000
    31 C10     12.4197   7.5223  10.7925   C.ar      1 RES1   0.0000
    32 H16     12.1808   8.2113  11.4020   H         1 RES1   0.0000
    33 C11     11.4573   6.9518   9.9647   C.ar      1 RES1   0.0000
    34 H17     10.5553   7.2467  10.0105   H         1 RES1   0.0000
    35 C12     11.8168   5.9541   9.0779   C.ar      1 RES1   0.0000
    36 H18     11.1443   5.5568   8.5349   H         1 RES1   0.0000
    37 C13     12.5773   2.8574   8.4168   C.ar      1 RES1   0.0000
    38 C14     11.7263   2.0723   7.6495   C.ar      1 RES1   0.0000
    39 H19     11.6359   2.2560   6.7214   H         1 RES1   0.0000
    40 C15     11.0075   1.0319   8.2029   C.ar      1 RES1   0.0000
    41 H20     10.4208   0.5181   7.6598   H         1 RES1   0.0000
    42 C16     11.1420   0.7392   9.5427   C.ar      1 RES1   0.0000
    43 H21     10.6620   0.0128   9.9219   H         1 RES1   0.0000
    44 C17     11.9791   1.5062  10.3336   C.ar      1 RES1   0.0000
    45 H22     12.0672   1.3085  11.2588   H         1 RES1   0.0000
    46 C18     12.6933   2.5680   9.7818   C.ar      1 RES1   0.0000
    47 H23     13.2614   3.0956  10.3322   H         1 RES1   0.0000
    48 C19     14.8011   0.7125   6.7273   C.ar      1 RES1   0.0000
    49 C20     14.1611  -0.1666   5.8375   C.ar      1 RES1   0.0000
    50 H24     14.1541   0.0288   4.9078   H         1 RES1   0.0000
    51 C21     13.5466  -1.3032   6.2934   C.ar      1 RES1   0.0000
    52 H25     13.1269  -1.8918   5.6766   H         1 RES1   0.0000
    53 C22     13.5327  -1.6034   7.6525   C.ar      1 RES1   0.0000
    54 H26     13.1037  -2.3917   7.9653   H         1 RES1   0.0000
    55 C23     14.1472  -0.7424   8.5437   C.ar      1 RES1   0.0000
    56 H27     14.1495  -0.9496   9.4719   H         1 RES1   0.0000
    57 C24     14.7617   0.4187   8.0966   C.ar      1 RES1   0.0000
    58 H28     15.1559   1.0159   8.7208   H         1 RES1   0.0000
    59 C25     17.3356   1.1537   5.8080   C.ar      1 RES1   0.0000
    60 C26     17.6695  -0.0096   6.5000   C.ar      1 RES1   0.0000
    61 H29     17.0944  -0.3226   7.1891   H         1 RES1   0.0000
    62 C27     18.8335  -0.7253   6.1990   C.ar      1 RES1   0.0000
    63 H30     19.0492  -1.5147   6.6815   H         1 RES1   0.0000
    64 C28     19.6730  -0.2703   5.1882   C.ar      1 RES1   0.0000
    65 H31     20.4660  -0.7477   4.9787   H         1 RES1   0.0000
    66 C29     19.3530   0.8727   4.4917   C.ar      1 RES1   0.0000
    67 H32     19.9164   1.1740   3.7893   H         1 RES1   0.0000
    68 C30     18.2075   1.5841   4.8149   C.ar      1 RES1   0.0000
    69 H33     18.0150   2.3874   4.3456   H         1 RES1   0.0000
    70 C31     19.2834   3.9812   6.9117   C.ar      1 RES1   0.0000
    71 C32     19.3599   2.8895   7.7808   C.ar      1 RES1   0.0000
    72 H34     18.6411   2.6993   8.3740   H         1 RES1   0.0000
    73 C33     20.4892   2.0873   7.7749   C.ar      1 RES1   0.0000
    74 H35     20.5379   1.3449   8.3652   H         1 RES1   0.0000
    75 C34     21.5442   2.3468   6.9250   C.ar      1 RES1   0.0000
    76 H36     22.3187   1.7967   6.9442   H         1 RES1   0.0000
    77 C35     21.4654   3.4150   6.0411   C.ar      1 RES1   0.0000
    78 H37     22.1819   3.5956   5.4450   H         1 RES1   0.0000
    79 C36     20.3315   4.2205   6.0382   C.ar      1 RES1   0.0000
    80 H38     20.2758   4.9458   5.4273   H         1 RES1   0.0000
    81 C37     18.2793   6.3483   8.1217   C.ar      1 RES1   0.0000
    82 C38     19.6034   6.4947   8.5304   C.ar      1 RES1   0.0000
    83 H39     20.2411   5.8366   8.2796   H         1 RES1   0.0000
    84 C39     20.0161   7.5789   9.2978   C.ar      1 RES1   0.0000
    85 H40     20.9251   7.6601   9.5560   H         1 RES1   0.0000
    86 C40     19.1002   8.5392   9.6844   C.ar      1 RES1   0.0000
    87 H41     19.3738   9.2773  10.2171   H         1 RES1   0.0000
    88 C41     17.7622   8.4121   9.2786   C.ar      1 RES1   0.0000
    89 H42     17.1269   9.0744   9.5250   H         1 RES1   0.0000
    90 C42     17.3680   7.3257   8.5245   C.ar      1 RES1   0.0000
    91 H43     16.4567   7.2413   8.2722   H         1 RES1   0.0000
@<TRIPOS>BOND
     1     1     2    1
     2     3     1    1
     3     4     1    1
     4     5     1    1
     5     6     1    1
     6     7     1    1
     7     8     4    1
     8     9     8    1
     9    10     8    1
    10    11     5    1
    11    12    11    1
    12    13    11    1
    13    14     4    1
    14    15    14    1
    15    16    14    1
    16    17     6    1
    17    18    17    1
    18    19    17    1
    19    20     4    1
    20    21    20    1
    21    22    20    1
    22    23     7    1
    23    24    23    1
    24    25    23    1
    25    26     5    1
    26    27    26   ar
    27    28    27    1
    28    29    27   ar
    29    30    29    1
    30    31    29   ar
    31    32    31    1
    32    33    31   ar
    33    34    33    1
    34    35    26   ar
    35    36    35    1
    36    37     5    1
    37    38    37   ar
    38    39    38    1
    39    40    38   ar
    40    41    40    1
    41    42    40   ar
    42    43    42    1
    43    44    42   ar
    44    45    44    1
    45    46    37   ar
    46    47    46    1
    47    48     6    1
    48    49    48   ar
    49    50    49    1
    50    51    49   ar
    51    52    51    1
    52    53    51   ar
    53    54    53    1
    54    55    53   ar
    55    56    55    1
    56    57    48   ar
    57    58    57    1
    58    59     6    1
    59    60    59   ar
    60    61    60    1
    61    62    60   ar
    62    63    62    1
    63    64    62   ar
    64    65    64    1
    65    66    64   ar
    66    67    66    1
    67    68    59   ar
    68    69    68    1
    69    70     7    1
    70    71    70   ar
    71    72    71    1
    72    73    71   ar
    73    74    73    1
    74    75    73   ar
    75    76    75    1
    76    77    75   ar
    77    78    77    1
    78    79    70   ar
    79    80    79    1
    80    81     7    1
    81    82    81   ar
    82    83    82    1
    83    84    82   ar
    84    85    84    1
    85    86    84   ar
    86    87    86    1
    87    88    86   ar
    88    89    88    1
    89    90    81   ar
    90    91    90    1
    91     8    11    1
    92    14    17    1
    93    20    23    1
    94    33    35   ar
    95    44    46   ar
    96    55    57   ar
    97    66    68   ar
    98    77    79   ar
    99    88    90   ar
@<TRIPOS>SUBSTRUCTURE
     1 RES1        1 GROUP             0 ****  ****    0  
@<TRIPOS>CRYSIN
   23.1883   10.6820   14.7560   90.0000   90.0000   90.0000    29     1
