@<TRIPOS>MOLECULE
YIBSOT
    85    90     5     0     0
SMALL
USER_CHARGES
****
Generated from the CSD

@<TRIPOS>ATOM
     1 Fe1      6.7042   5.2014  10.7174   Fe        1 RES1   2.0000
     2 N1       6.6611   3.2658  10.4474   N.ar      1 RES1   0.0000
     3 C1       7.7353   2.6281   9.8688   C.ar      1 RES1   0.0000
     4 C2       7.7309   1.2444   9.6484   C.ar      1 RES1   0.0000
     5 H1       8.4890   0.8048   9.2814   H         1 RES1   0.0000
     6 C3       6.5650   0.5231   9.9893   C.ar      1 RES1   0.0000
     7 H2       6.5265  -0.4122   9.8263   H         1 RES1   0.0000
     8 C4       5.4578   1.1795  10.5712   C.ar      1 RES1   0.0000
     9 H3       4.6728   0.6963  10.7984   H         1 RES1   0.0000
    10 C5       5.5425   2.5608  10.8039   C.ar      1 RES1   0.0000
    11 C6       8.8118   3.6021   9.5553   C.2       1 RES1   0.0000
    12 N2       8.5120   4.8893   9.8907   N.2       1 RES1   0.0000
    13 N3       9.6084   5.6209   9.5361   N.pl3     1 RES1   0.0000
    14 H4       9.6756   6.4914   9.6401   H         1 RES1   0.0000
    15 C7      10.5972   4.8286   8.9966   C.2       1 RES1   0.0000
    16 C8      10.1277   3.5141   8.9871   C.2       1 RES1   0.0000
    17 H5      10.5773   2.7378   8.6749   H         1 RES1   0.0000
    18 C9      11.9246   5.4183   8.5188   C.3       1 RES1   0.0000
    19 H6      11.7516   6.1166   7.8534   H         1 RES1   0.0000
    20 H7      12.4706   4.7122   8.1149   H         1 RES1   0.0000
    21 H8      12.4027   5.8049   9.2814   H         1 RES1   0.0000
    22 C10      4.5260   3.4408  11.4159   C.2       1 RES1   0.0000
    23 N4       4.8869   4.7511  11.4707   N.2       1 RES1   0.0000
    24 N5       3.8332   5.4008  12.0553   N.pl3     1 RES1   0.0000
    25 H9       3.8085   6.2665  12.2100   H         1 RES1   0.0000
    26 C11      2.8052   4.5163  12.3729   C.2       1 RES1   0.0000
    27 C12      3.2266   3.2619  11.9827   C.2       1 RES1   0.0000
    28 H10      2.7493   2.4459  12.0717   H         1 RES1   0.0000
    29 C13      1.4859   4.9923  12.9713   C.3       1 RES1   0.0000
    30 H11      1.1069   4.2842  13.5326   H         1 RES1   0.0000
    31 H12      0.8594   5.2093  12.2497   H         1 RES1   0.0000
    32 H13      1.6439   5.7911  13.5176   H         1 RES1   0.0000
    33 N6       6.7680   7.1421  10.9463   N.ar      1 RES1   0.0000
    34 C14      6.3301   7.9537   9.9318   C.ar      1 RES1   0.0000
    35 C15      6.3886   9.3538  10.0605   C.ar      1 RES1   0.0000
    36 H14      6.0757   9.9175   9.3622   H         1 RES1   0.0000
    37 C16      6.9171   9.8998  11.2393   C.ar      1 RES1   0.0000
    38 H15      6.9570  10.8426  11.3434   H         1 RES1   0.0000
    39 C17      7.3917   9.0627  12.2689   C.ar      1 RES1   0.0000
    40 H16      7.7763   9.4323  13.0548   H         1 RES1   0.0000
    41 C18      7.2861   7.6729  12.1087   C.ar      1 RES1   0.0000
    42 C19      5.8488   7.1567   8.7803   C.2       1 RES1   0.0000
    43 N7       5.9217   5.8018   8.9871   N.2       1 RES1   0.0000
    44 N8       5.4575   5.2296   7.8256   N.pl3     1 RES1   0.0000
    45 H17      5.4112   4.3611   7.6877   H         1 RES1   0.0000
    46 C20      5.0703   6.1868   6.8964   C.2       1 RES1   0.0000
    47 C21      5.3228   7.4283   7.4920   C.2       1 RES1   0.0000
    48 H18      5.1706   8.2843   7.1086   H         1 RES1   0.0000
    49 C22      4.5514   5.8010   5.5396   C.3       1 RES1   0.0000
    50 H19      5.3052   5.5801   4.9522   H         1 RES1   0.0000
    51 H20      4.0482   6.5486   5.1562   H         1 RES1   0.0000
    52 H21      3.9650   5.0199   5.6244   H         1 RES1   0.0000
    53 C23      7.6932   6.6123  13.0466   C.2       1 RES1   0.0000
    54 N9       7.5015   5.3495  12.5633   N.2       1 RES1   0.0000
    55 N10      7.9163   4.4921  13.5354   N.pl3     1 RES1   0.0000
    56 H22      7.8992   3.6155  13.4683   H         1 RES1   0.0000
    57 C24      8.3690   5.1876  14.6457   C.2       1 RES1   0.0000
    58 C25      8.2429   6.5269  14.3705   C.2       1 RES1   0.0000
    59 H23      8.4727   7.2508  14.9415   H         1 RES1   0.0000
    60 C26      8.8877   4.4617  15.8903   C.3       1 RES1   0.0000
    61 H24      8.1294   4.1757  16.4420   H         1 RES1   0.0000
    62 H25      9.4588   5.0653  16.4078   H         1 RES1   0.0000
    63 H26      9.4061   3.6747  15.6178   H         1 RES1   0.0000
    64 Cl1      9.8659   9.1333   8.4839   Cl        2 RES2   0.0000
    65 O1       9.7963   8.4621   9.7949   O.3       2 RES2  -1.0000
    66 O2       8.7709   8.6769   7.6631   O.2       2 RES2   0.0000
    67 O3       9.7671  10.5580   8.6968   O.2       2 RES2   0.0000
    68 O4      11.1186   8.8248   7.8260   O.2       2 RES2   0.0000
    69 Cl2      2.9528   8.9301  12.3295   Cl        3 RES3   0.0000
    70 O5       4.0949   8.1964  12.8754   O.3       3 RES3  -1.0000
    71 O6       1.8517   8.8406  13.2697   O.2       3 RES3   0.0000
    72 O7       2.5689   8.3187  11.0777   O.2       3 RES3   0.0000
    73 O8       3.3017  10.3217  12.1594   O.2       3 RES3   0.0000
    74 C27      5.4528   1.9942   6.0639   C.3       4 RES4   0.0000
    75 H27      6.1174   2.5977   5.6696   H         4 RES4   0.0000
    76 H28      4.6760   1.9291   5.4697   H         4 RES4   0.0000
    77 H29      5.8488   1.1046   6.1831   H         4 RES4   0.0000
    78 O9       5.0397   2.5064   7.3372   O.3       4 RES4   0.0000
    79 H30      4.6814   1.8166   7.7699   H         4 RES4   0.0000
    80 C28      7.6390   1.2426  14.5006   C.3       5 RES5   0.0000
    81 H31      8.4374   1.3827  15.0524   H         5 RES5   0.0000
    82 H32      7.4832   0.2821  14.3897   H         5 RES5   0.0000
    83 H33      6.8642   1.6509  14.9374   H         5 RES5   0.0000
    84 O10      7.8322   1.8348  13.2369   O.3       5 RES5   0.0000
    85 H34      8.6807   1.7298  12.9795   H         5 RES5   0.0000
@<TRIPOS>BOND
     1     1     2    1
     2     2     3   ar
     3     3     4   ar
     4     4     5    1
     5     6     4   ar
     6     7     6    1
     7     8     6   ar
     8     9     8    1
     9    10     2   ar
    10    11     3    1
    11    12     1    1
    12    13    12    1
    13    14    13    1
    14    15    13    1
    15    16    11    1
    16    17    16    1
    17    18    15    1
    18    19    18    1
    19    20    18    1
    20    21    18    1
    21    22    10    1
    22    23     1    1
    23    24    23    1
    24    25    24    1
    25    26    24    1
    26    27    22    1
    27    28    27    1
    28    29    26    1
    29    30    29    1
    30    31    29    1
    31    32    29    1
    32    33     1    1
    33    34    33   ar
    34    35    34   ar
    35    36    35    1
    36    37    35   ar
    37    38    37    1
    38    39    37   ar
    39    40    39    1
    40    41    33   ar
    41    42    34    1
    42    43     1    1
    43    44    43    1
    44    45    44    1
    45    46    44    1
    46    47    42    1
    47    48    47    1
    48    49    46    1
    49    50    49    1
    50    51    49    1
    51    52    49    1
    52    53    41    1
    53    54     1    1
    54    55    54    1
    55    56    55    1
    56    57    55    1
    57    58    53    1
    58    59    58    1
    59    60    57    1
    60    61    60    1
    61    62    60    1
    62    63    60    1
    63     8    10   ar
    64    11    12    2
    65    15    16    2
    66    22    23    2
    67    26    27    2
    68    39    41   ar
    69    42    43    2
    70    46    47    2
    71    53    54    2
    72    57    58    2
    73    64    65    1
    74    66    64    2
    75    67    64    2
    76    68    64    2
    77    69    70    1
    78    71    69    2
    79    72    69    2
    80    73    69    2
    81    74    75    1
    82    76    74    1
    83    77    74    1
    84    78    74    1
    85    79    78    1
    86    80    81    1
    87    82    80    1
    88    83    80    1
    89    84    80    1
    90    85    84    1
@<TRIPOS>SUBSTRUCTURE
     1 RES1        1 GROUP             0 ****  ****    0  
     2 RES2       64 GROUP             0 ****  ****    0  
     3 RES3       69 GROUP             0 ****  ****    0  
     4 RES4       74 GROUP             0 ****  ****    0  
     5 RES5       80 GROUP             0 ****  ****    0  
@<TRIPOS>CRYSIN
   13.6553   19.7246   13.6951   90.0000   91.3260   90.0000   231     1
