@<TRIPOS>MOLECULE
YICBIX02
    75    82     3     0     0
SMALL
USER_CHARGES
****
Generated from the CSD

@<TRIPOS>ATOM
     1 Fe1      3.3117   7.0811  12.0657   Fe        1 RES1   1.0000
     2 I1       3.2283  10.9474  18.6874   I         1 RES1   0.0000
     3 I2      -2.3314   5.6560   7.0529   I         1 RES1   0.0000
     4 N1       4.4828   8.7592  12.5178   N.2       1 RES1   0.0000
     5 N2       4.5805   7.2690  10.3464   N.ar      1 RES1   0.0000
     6 N3       4.7837   5.7641  12.9324   N.ar      1 RES1   0.0000
     7 N4       2.6134   5.1882  11.4894   N.2       1 RES1   0.0000
     8 C1       2.6819   8.0207  14.8187   C.ar      1 RES1   0.0000
     9 C2       1.9666   7.7983  15.9953   C.ar      1 RES1   0.0000
    10 H1       1.3637   7.0915  16.0314   H         1 RES1   0.0000
    11 C3       2.1286   8.5896  17.0934   C.ar      1 RES1   0.0000
    12 H2       1.6587   8.4084  17.8753   H         1 RES1   0.0000
    13 C4       3.0062   9.6752  17.0349   C.ar      1 RES1   0.0000
    14 C5       3.7290   9.9336  15.9019   C.ar      1 RES1   0.0000
    15 H3       4.3075  10.6625  15.8782   H         1 RES1   0.0000
    16 C6       3.6008   9.0987  14.7652   C.ar      1 RES1   0.0000
    17 C7       4.3957   9.4272  13.6409   C.2       1 RES1   0.0000
    18 H4       4.9114  10.1997  13.7069   H         1 RES1   0.0000
    19 C8       5.4128   9.1420  11.5380   C.ar      1 RES1   0.0000
    20 C9       6.2841  10.2218  11.6040   C.ar      1 RES1   0.0000
    21 H5       6.3069  10.7665  12.3572   H         1 RES1   0.0000
    22 C10      7.1381  10.4771  10.5008   C.ar      1 RES1   0.0000
    23 H6       7.7072  11.2106  10.5469   H         1 RES1   0.0000
    24 C11      7.1676   9.7178   9.3940   C.ar      1 RES1   0.0000
    25 H7       7.7587   9.9177   8.7042   H         1 RES1   0.0000
    26 C12      6.3053   8.6256   9.2881   C.ar      1 RES1   0.0000
    27 C13      5.4184   8.3419  10.3713   C.ar      1 RES1   0.0000
    28 C14      6.2674   7.7445   8.1912   C.ar      1 RES1   0.0000
    29 H8       6.8267   7.8875   7.4616   H         1 RES1   0.0000
    30 C15      5.4294   6.7046   8.1987   C.ar      1 RES1   0.0000
    31 H9       5.4024   6.1377   7.4616   H         1 RES1   0.0000
    32 C16      4.5909   6.4517   9.2956   C.ar      1 RES1   0.0000
    33 H10      4.0361   5.7042   9.2881   H         1 RES1   0.0000
    34 C17      1.0051   7.3473  10.2182   C.ar      1 RES1   0.0000
    35 C18      0.1967   8.2087   9.4936   C.ar      1 RES1   0.0000
    36 H11      0.3037   9.1278   9.5944   H         1 RES1   0.0000
    37 C19     -0.7591   7.7318   8.6283   C.ar      1 RES1   0.0000
    38 H12     -1.3003   8.3218   8.1539   H         1 RES1   0.0000
    39 C20     -0.9157   6.3162   8.4627   C.ar      1 RES1   0.0000
    40 C21     -0.1575   5.5101   9.1686   C.ar      1 RES1   0.0000
    41 H13     -0.2835   4.5925   9.0815   H         1 RES1   0.0000
    42 C22      0.8222   5.9624  10.0339   C.ar      1 RES1   0.0000
    43 C23      1.6217   4.9736  10.6963   C.2       1 RES1   0.0000
    44 H14      1.4012   4.0846  10.5369   H         1 RES1   0.0000
    45 C24      3.3699   4.0787  12.0148   C.ar      1 RES1   0.0000
    46 C25      3.1004   2.7313  11.8654   C.ar      1 RES1   0.0000
    47 H15      2.3729   2.4669  11.3512   H         1 RES1   0.0000
    48 C26      3.8911   1.7639  12.4680   C.ar      1 RES1   0.0000
    49 H16      3.6584   0.8690  12.3722   H         1 RES1   0.0000
    50 C27      4.9942   2.0816  13.1939   C.ar      1 RES1   0.0000
    51 H17      5.5358   1.4161  13.5525   H         1 RES1   0.0000
    52 C28      5.3000   3.4502  13.3944   C.ar      1 RES1   0.0000
    53 C29      4.4812   4.4539  12.7855   C.ar      1 RES1   0.0000
    54 C30      6.3999   3.8792  14.1551   C.ar      1 RES1   0.0000
    55 H18      6.9426   3.2500  14.5709   H         1 RES1   0.0000
    56 C31      6.6803   5.1911  14.2908   C.ar      1 RES1   0.0000
    57 H19      7.4160   5.4723  14.7838   H         1 RES1   0.0000
    58 C32      5.8355   6.1192  13.6708   C.ar      1 RES1   0.0000
    59 H20      6.0168   7.0253  13.7778   H         1 RES1   0.0000
    60 O1       2.4740   7.2395  13.7704   O.3       1 RES1   0.0000
    61 O2       1.8816   7.8583  11.0711   O.3       1 RES1   0.0000
    62 C33      5.9974   3.9053   4.8097   C.3       2 RES2   0.0000
    63 O3       7.8174   5.2710   3.7601   O.2       2 RES2   0.0000
    64 O4       7.6139   2.9405   3.1450   O.3       2 RES2  -1.0000
    65 O5       6.0197   4.5564   2.3320   O.2       2 RES2   0.0000
    66 F1       5.1148   3.0151   4.6503   F         2 RES2   0.0000
    67 F2       5.3268   5.0987   5.0475   F         2 RES2   0.0000
    68 F3       6.7333   3.6527   5.8630   F         2 RES2   0.0000
    69 S1       6.9780   4.2272   3.3492   S.o2      2 RES2   0.0000
    70 C34     14.7241  13.5278   5.0798   C.3       3 RES3   0.0000
    71 H21     14.0226  14.1480   5.2927   H         3 RES3   0.0000
    72 H22     15.5605  13.9973   5.0300   H         3 RES3   0.0000
    73 H23     14.7742  12.8525   5.7559   H         3 RES3   0.0000
    74 O6      14.4713  12.9699   3.9244   O.3       3 RES3   0.0000
    75 H24     13.6792  13.0742   3.7364   H         3 RES3   0.0000
@<TRIPOS>BOND
     1     1     4    1
     2     2    13    1
     3     3    39    1
     4     4    17    2
     5     5     1    1
     6     6     1    1
     7     7     1    1
     8     8     9   ar
     9     9    10    1
    10    11     9   ar
    11    12    11    1
    12    13    11   ar
    13    14    13   ar
    14    15    14    1
    15    16     8   ar
    16    17    16    1
    17    18    17    1
    18    19     4    1
    19    20    19   ar
    20    21    20    1
    21    22    20   ar
    22    23    22    1
    23    24    22   ar
    24    25    24    1
    25    26    24   ar
    26    27     5   ar
    27    28    26   ar
    28    29    28    1
    29    30    28   ar
    30    31    30    1
    31    32     5   ar
    32    33    32    1
    33    34    35   ar
    34    35    36    1
    35    37    35   ar
    36    38    37    1
    37    39    37   ar
    38    40    39   ar
    39    41    40    1
    40    42    34   ar
    41    43     7    2
    42    44    43    1
    43    45     7    1
    44    46    45   ar
    45    47    46    1
    46    48    46   ar
    47    49    48    1
    48    50    48   ar
    49    51    50    1
    50    52    50   ar
    51    53     6   ar
    52    54    52   ar
    53    55    54    1
    54    56    54   ar
    55    57    56    1
    56    58     6   ar
    57    59    58    1
    58    60     1    1
    59    61     1    1
    60     8    60    1
    61    14    16   ar
    62    19    27   ar
    63    26    27   ar
    64    30    32   ar
    65    34    61    1
    66    40    42   ar
    67    42    43    1
    68    45    53   ar
    69    52    53   ar
    70    56    58   ar
    71    62    66    1
    72    63    69    2
    73    64    69    1
    74    65    69    2
    75    67    62    1
    76    68    62    1
    77    69    62    1
    78    70    71    1
    79    72    70    1
    80    73    70    1
    81    74    70    1
    82    75    74    1
@<TRIPOS>SUBSTRUCTURE
     1 RES1        1 GROUP             0 ****  ****    0  
     2 RES2       62 GROUP             0 ****  ****    0  
     3 RES3       70 GROUP             0 ****  ****    0  
@<TRIPOS>CRYSIN
   11.7726   12.6918   13.3179   69.4370   85.0200   67.5260     2     1
