@<TRIPOS>MOLECULE
YICBIX
    75    82     3     0     0
SMALL
USER_CHARGES
****
Generated from the CSD

@<TRIPOS>ATOM
     1 Fe1     14.6698   2.3145  -0.4741   Fe        1 RES1   1.0000
     2 I1      13.7284   6.3111   5.8925   I         1 RES1   0.0000
     3 I2       8.7244   1.2129  -5.0346   I         1 RES1   0.0000
     4 N1      15.5654   4.0216  -0.0924   N.2       1 RES1   0.0000
     5 N2      15.7861   2.3561  -2.0584   N.ar      1 RES1   0.0000
     6 N3      16.0829   1.2062   0.4285   N.ar      1 RES1   0.0000
     7 N4      13.8991   0.5714  -0.8822   N.2       1 RES1   0.0000
     8 C1      13.7114   3.1971   2.1017   C.ar      1 RES1   0.0000
     9 C2      12.9047   3.0032   3.2191   C.ar      1 RES1   0.0000
    10 H1      12.3435   2.2379   3.2455   H         1 RES1   0.0000
    11 C3      12.8859   3.8708   4.2861   C.ar      1 RES1   0.0000
    12 H2      12.3551   3.6818   5.0507   H         1 RES1   0.0000
    13 C4      13.6695   5.0519   4.2285   C.ar      1 RES1   0.0000
    14 C5      14.4269   5.2982   3.1339   C.ar      1 RES1   0.0000
    15 H3      14.9398   6.0982   3.1015   H         1 RES1   0.0000
    16 C6      14.4811   4.4063   2.0356   C.ar      1 RES1   0.0000
    17 C7      15.3395   4.7530   0.9470   C.2       1 RES1   0.0000
    18 H4      15.7803   5.5925   0.9926   H         1 RES1   0.0000
    19 C8      16.5140   4.3962  -1.0814   C.ar      1 RES1   0.0000
    20 C9      17.3376   5.5095  -1.0418   C.ar      1 RES1   0.0000
    21 H5      17.3056   6.1156  -0.3109   H         1 RES1   0.0000
    22 C10     18.2116   5.7112  -2.1041   C.ar      1 RES1   0.0000
    23 H6      18.7635   6.4857  -2.0872   H         1 RES1   0.0000
    24 C11     18.3277   4.8623  -3.1771   C.ar      1 RES1   0.0000
    25 H7      18.9577   5.0323  -3.8684   H         1 RES1   0.0000
    26 C12     17.4752   3.7130  -3.2263   C.ar      1 RES1   0.0000
    27 C13     16.5648   3.4870  -2.1269   C.ar      1 RES1   0.0000
    28 C14     17.4406   2.7845  -4.2645   C.ar      1 RES1   0.0000
    29 H8      17.9970   2.9113  -5.0255   H         1 RES1   0.0000
    30 C15     16.6027   1.6720  -4.2057   C.ar      1 RES1   0.0000
    31 H9      16.5683   1.0500  -4.9235   H         1 RES1   0.0000
    32 C16     15.8120   1.4914  -3.0619   C.ar      1 RES1   0.0000
    33 H10     15.2698   0.7139  -3.0030   H         1 RES1   0.0000
    34 C17     12.3667   2.7622  -2.1125   C.ar      1 RES1   0.0000
    35 C18     11.5749   3.6756  -2.8302   C.ar      1 RES1   0.0000
    36 H11     11.7613   4.6048  -2.7702   H         1 RES1   0.0000
    37 C19     10.5299   3.2424  -3.6212   C.ar      1 RES1   0.0000
    38 H12      9.9968   3.8795  -4.0821   H         1 RES1   0.0000
    39 C20     10.2475   1.8967  -3.7544   C.ar      1 RES1   0.0000
    40 C21     10.9616   1.0097  -3.0991   C.ar      1 RES1   0.0000
    41 H13     10.7418   0.0884  -3.1627   H         1 RES1   0.0000
    42 C22     12.0798   1.4243  -2.2805   C.ar      1 RES1   0.0000
    43 C23     12.8093   0.3853  -1.5867   C.2       1 RES1   0.0000
    44 H14     12.4717  -0.5012  -1.6468   H         1 RES1   0.0000
    45 C24     14.6081  -0.5175  -0.3133   C.ar      1 RES1   0.0000
    46 C25     14.2977  -1.8299  -0.4405   C.ar      1 RES1   0.0000
    47 H15     13.5494  -2.0985  -0.9602   H         1 RES1   0.0000
    48 C26     15.0975  -2.7911   0.2076   C.ar      1 RES1   0.0000
    49 H16     14.8309  -3.7024   0.1740   H         1 RES1   0.0000
    50 C27     16.2783  -2.4589   0.9014   C.ar      1 RES1   0.0000
    51 H17     16.8236  -3.1281   1.2975   H         1 RES1   0.0000
    52 C28     16.6171  -1.0910   0.9854   C.ar      1 RES1   0.0000
    53 C29     15.7632  -0.1017   0.3133   C.ar      1 RES1   0.0000
    54 C30     17.7516  -0.6373   1.6948   C.ar      1 RES1   0.0000
    55 H18     18.3197  -1.2489   2.1497   H         1 RES1   0.0000
    56 C31     18.0115   0.7111   1.7080   C.ar      1 RES1   0.0000
    57 H19     18.7787   1.0399   2.1629   H         1 RES1   0.0000
    58 C32     17.1271   1.6315   1.0370   C.ar      1 RES1   0.0000
    59 H20     17.3212   2.5612   1.0454   H         1 RES1   0.0000
    60 O1      13.6949   2.2965   1.1258   O.3       1 RES1   0.0000
    61 O2      13.3649   3.3017  -1.3959   O.3       1 RES1   0.0000
    62 C33      5.9289   3.9138   4.3521   C.3       2 RES2   0.0000
    63 O3       7.7592   5.4386   3.5048   O.2       2 RES2   0.0000
    64 O4       7.7434   3.1323   2.7498   O.2       2 RES2   0.0000
    65 O5       6.0537   4.6874   1.9312   O.3       2 RES2  -1.0000
    66 F1       5.1405   2.8227   4.1085   F         2 RES2   0.0000
    67 F2       5.0790   4.9115   4.6798   F         2 RES2   0.0000
    68 F3       6.5982   3.6360   5.4984   F         2 RES2   0.0000
    69 S1       6.9908   4.3362   2.9922   S.o2      2 RES2   0.0000
    70 C34      9.7901   1.7640   4.9295   C.3       3 RES3   0.0000
    71 H21     10.5859   1.3848   5.3567   H         3 RES3   0.0000
    72 H22      8.9879   1.3355   5.2955   H         3 RES3   0.0000
    73 H23      9.7535   2.7283   5.1023   H         3 RES3   0.0000
    74 O6       9.8476   1.5444   3.5828   O.3       3 RES3   0.0000
    75 H24      9.0776   1.6096   3.2551   H         3 RES3   0.0000
@<TRIPOS>BOND
     1     1     4    1
     2     2    13    1
     3     3    39    1
     4     4    17    2
     5     5     1    1
     6     6     1    1
     7     7     1    1
     8     8     9   ar
     9     9    10    1
    10    11     9   ar
    11    12    11    1
    12    13    11   ar
    13    14    13   ar
    14    15    14    1
    15    16     8   ar
    16    17    16    1
    17    18    17    1
    18    19     4    1
    19    20    19   ar
    20    21    20    1
    21    22    20   ar
    22    23    22    1
    23    24    22   ar
    24    25    24    1
    25    26    24   ar
    26    27     5   ar
    27    28    26   ar
    28    29    28    1
    29    30    28   ar
    30    31    30    1
    31    32     5   ar
    32    33    32    1
    33    34    35   ar
    34    35    36    1
    35    37    35   ar
    36    38    37    1
    37    39    37   ar
    38    40    39   ar
    39    41    40    1
    40    42    34   ar
    41    43     7    2
    42    44    43    1
    43    45     7    1
    44    46    45   ar
    45    47    46    1
    46    48    46   ar
    47    49    48    1
    48    50    48   ar
    49    51    50    1
    50    52    50   ar
    51    53     6   ar
    52    54    52   ar
    53    55    54    1
    54    56    54   ar
    55    57    56    1
    56    58     6   ar
    57    59    58    1
    58    60     1    1
    59    61     1    1
    60     8    60    1
    61    14    16   ar
    62    19    27   ar
    63    26    27   ar
    64    30    32   ar
    65    34    61    1
    66    40    42   ar
    67    42    43    1
    68    45    53   ar
    69    52    53   ar
    70    56    58   ar
    71    62    66    1
    72    63    69    2
    73    64    69    2
    74    65    69    1
    75    67    62    1
    76    68    62    1
    77    69    62    1
    78    70    71    1
    79    72    70    1
    80    73    70    1
    81    74    70    1
    82    75    74    1
@<TRIPOS>SUBSTRUCTURE
     1 RES1        1 GROUP             0 ****  ****    0  
     2 RES2       62 GROUP             0 ****  ****    0  
     3 RES3       70 GROUP             0 ****  ****    0  
@<TRIPOS>CRYSIN
   12.2488   12.3956   12.8192   70.1080   87.5810   68.7450     2     1
