@<TRIPOS>MOLECULE
YICBIX01
    75    82     3     0     0
SMALL
USER_CHARGES
****
Generated from the CSD

@<TRIPOS>ATOM
     1 Fe1      3.0150   6.8047  11.6066   Fe        1 RES1   1.0000
     2 I1       2.1600  10.7960  17.9876   I         1 RES1   0.0000
     3 I2      -2.8954   5.6775   6.9948   I         1 RES1   0.0000
     4 N1       3.9287   8.4788  12.0064   N.2       1 RES1   0.0000
     5 N2       4.1460   6.8662   9.9612   N.ar      1 RES1   0.0000
     6 N3       4.4225   5.6792  12.4868   N.ar      1 RES1   0.0000
     7 N4       2.2407   5.0510  11.1685   N.2       1 RES1   0.0000
     8 C1       2.0895   7.6911  14.1758   C.ar      1 RES1   0.0000
     9 C2       1.2867   7.4963  15.3348   C.ar      1 RES1   0.0000
    10 H1       0.7299   6.7391  15.3722   H         1 RES1   0.0000
    11 C3       1.2885   8.3541  16.3900   C.ar      1 RES1   0.0000
    12 H2       0.7514   8.1775  17.1409   H         1 RES1   0.0000
    13 C4       2.0956   9.5040  16.3550   C.ar      1 RES1   0.0000
    14 C5       2.8401   9.7560  15.2346   C.ar      1 RES1   0.0000
    15 H3       3.3490  10.5442  15.1996   H         1 RES1   0.0000
    16 C6       2.8700   8.8778  14.1336   C.ar      1 RES1   0.0000
    17 C7       3.7393   9.2227  13.0482   C.2       1 RES1   0.0000
    18 H4       4.2006  10.0406  13.0965   H         1 RES1   0.0000
    19 C8       4.8925   8.8963  11.0104   C.ar      1 RES1   0.0000
    20 C9       5.7131   9.9748  11.0393   C.ar      1 RES1   0.0000
    21 H5       5.6817  10.5741  11.7625   H         1 RES1   0.0000
    22 C10      6.6091  10.1886   9.9818   C.ar      1 RES1   0.0000
    23 H6       7.1825  10.9330  10.0131   H         1 RES1   0.0000
    24 C11      6.6726   9.3596   8.9230   C.ar      1 RES1   0.0000
    25 H7       7.2775   9.5412   8.2264   H         1 RES1   0.0000
    26 C12      5.8482   8.2288   8.8469   C.ar      1 RES1   0.0000
    27 C13      4.9534   7.9789   9.9226   C.ar      1 RES1   0.0000
    28 C14      5.8213   7.2950   7.7930   C.ar      1 RES1   0.0000
    29 H8       6.3803   7.4227   7.0481   H         1 RES1   0.0000
    30 C15      4.9954   6.2071   7.8328   C.ar      1 RES1   0.0000
    31 H9       4.9862   5.5940   7.1193   H         1 RES1   0.0000
    32 C16      4.1583   6.0082   8.9495   C.ar      1 RES1   0.0000
    33 H10      3.5997   5.2537   8.9785   H         1 RES1   0.0000
    34 C17      0.7235   7.2498   9.9359   C.ar      1 RES1   0.0000
    35 C18     -0.0835   8.1774   9.2091   C.ar      1 RES1   0.0000
    36 H11      0.0967   9.0969   9.2658   H         1 RES1   0.0000
    37 C19     -1.1276   7.7343   8.4256   C.ar      1 RES1   0.0000
    38 H12     -1.6633   8.3553   7.9668   H         1 RES1   0.0000
    39 C20     -1.3919   6.3708   8.3097   C.ar      1 RES1   0.0000
    40 C21     -0.6332   5.4556   9.0039   C.ar      1 RES1   0.0000
    41 H13     -0.8304   4.5397   8.9350   H         1 RES1   0.0000
    42 C22      0.4275   5.8772   9.8079   C.ar      1 RES1   0.0000
    43 C23      1.1760   4.8409  10.4695   C.2       1 RES1   0.0000
    44 H14      0.8701   3.9565  10.3886   H         1 RES1   0.0000
    45 C24      2.9719   3.9679  11.7287   C.ar      1 RES1   0.0000
    46 C25      2.6259   2.5859  11.6381   C.ar      1 RES1   0.0000
    47 H15      1.8576   2.3117  11.1697   H         1 RES1   0.0000
    48 C26      3.4533   1.6513  12.2611   C.ar      1 RES1   0.0000
    49 H16      3.2275   0.7407  12.2068   H         1 RES1   0.0000
    50 C27      4.5878   2.0124  12.9516   C.ar      1 RES1   0.0000
    51 H17      5.1177   1.3522  13.3609   H         1 RES1   0.0000
    52 C28      4.9538   3.3651  13.0446   C.ar      1 RES1   0.0000
    53 C29      4.1261   4.3329  12.4204   C.ar      1 RES1   0.0000
    54 C30      6.0857   3.8274  13.7424   C.ar      1 RES1   0.0000
    55 H18      6.6525   3.2181  14.1794   H         1 RES1   0.0000
    56 C31      6.3550   5.1512  13.7823   C.ar      1 RES1   0.0000
    57 H19      7.1142   5.4598  14.2434   H         1 RES1   0.0000
    58 C32      5.4943   6.0839  13.1291   C.ar      1 RES1   0.0000
    59 H20      5.6979   7.0006  13.1593   H         1 RES1   0.0000
    60 O1       2.0417   6.7945  13.2257   O.3       1 RES1   0.0000
    61 O2       1.7009   7.7712  10.6771   O.3       1 RES1   0.0000
    62 C33      5.9412   3.9347   4.4186   C.3       2 RES2   0.0000
    63 O3       7.7738   5.4320   3.5554   O.3       2 RES2  -1.0000
    64 O4       7.7418   3.1275   2.8081   O.2       2 RES2   0.0000
    65 O5       6.0689   4.6642   2.0041   O.2       2 RES2   0.0000
    66 F1       5.1582   2.8813   4.1603   F         2 RES2   0.0000
    67 F2       5.1113   4.9366   4.7229   F         2 RES2   0.0000
    68 F3       6.5982   3.6328   5.5390   F         2 RES2   0.0000
    69 S1       7.0043   4.3326   3.0411   S.o2      2 RES2   0.0000
    70 C34      9.8208   1.7491   4.9510   C.3       3 RES3   0.0000
    71 H21      9.6909   0.9163   5.4327   H         3 RES3   0.0000
    72 H22      9.0940   2.3577   5.1575   H         3 RES3   0.0000
    73 H23     10.6624   2.1497   5.2191   H         3 RES3   0.0000
    74 O6       9.8409   1.5090   3.6508   O.3       3 RES3   0.0000
    75 H24      9.1218   1.7507   3.3140   H         3 RES3   0.0000
@<TRIPOS>BOND
     1     1     4    1
     2     2    13    1
     3     3    39    1
     4     4    17    2
     5     5     1    1
     6     6     1    1
     7     7     1    1
     8     8     9   ar
     9     9    10    1
    10    11     9   ar
    11    12    11    1
    12    13    11   ar
    13    14    13   ar
    14    15    14    1
    15    16     8   ar
    16    17    16    1
    17    18    17    1
    18    19     4    1
    19    20    19   ar
    20    21    20    1
    21    22    20   ar
    22    23    22    1
    23    24    22   ar
    24    25    24    1
    25    26    24   ar
    26    27     5   ar
    27    28    26   ar
    28    29    28    1
    29    30    28   ar
    30    31    30    1
    31    32     5   ar
    32    33    32    1
    33    34    35   ar
    34    35    36    1
    35    37    35   ar
    36    38    37    1
    37    39    37   ar
    38    40    39   ar
    39    41    40    1
    40    42    34   ar
    41    43     7    2
    42    44    43    1
    43    45     7    1
    44    46    45   ar
    45    47    46    1
    46    48    46   ar
    47    49    48    1
    48    50    48   ar
    49    51    50    1
    50    52    50   ar
    51    53     6   ar
    52    54    52   ar
    53    55    54    1
    54    56    54   ar
    55    57    56    1
    56    58     6   ar
    57    59    58    1
    58    60     1    1
    59    61     1    1
    60     8    60    1
    61    14    16   ar
    62    19    27   ar
    63    26    27   ar
    64    30    32   ar
    65    34    61    1
    66    40    42   ar
    67    42    43    1
    68    45    53   ar
    69    52    53   ar
    70    56    58   ar
    71    62    66    1
    72    63    69    1
    73    64    69    2
    74    65    69    2
    75    67    62    1
    76    68    62    1
    77    69    62    1
    78    70    71    1
    79    72    70    1
    80    73    70    1
    81    74    70    1
    82    75    74    1
@<TRIPOS>SUBSTRUCTURE
     1 RES1        1 GROUP             0 ****  ****    0  
     2 RES2       62 GROUP             0 ****  ****    0  
     3 RES3       70 GROUP             0 ****  ****    0  
@<TRIPOS>CRYSIN
   12.2189   12.4526   12.8877   70.1150   87.2820   68.6040     2     1
