@<TRIPOS>MOLECULE
YICCUJ
   100   109     3     0     0
SMALL
USER_CHARGES
****
Generated from the CSD

@<TRIPOS>ATOM
     1 Fe1      1.1186   6.6922   3.1699   Fe        1 RES1   0.0000
     2 Cl1     -1.1680  13.0215   3.6144   Cl        1 RES1   0.0000
     3 Cl2     -1.7783   1.0548   0.9061   Cl        1 RES1   0.0000
     4 O1      -0.3799   7.2471   4.2375   O.3       1 RES1   0.0000
     5 O2       2.5673   6.2348   2.0924   O.3       1 RES1   0.0000
     6 O3       6.2293   4.5346   2.5195   O.2       1 RES1   0.0000
     7 O4      -0.0900   6.6105   1.7087   O.3       1 RES1   0.0000
     8 O5       2.2670   6.7129   4.6627   O.3       1 RES1  -1.0000
     9 O6       5.9512   7.1648   6.4801   O.2       1 RES1   0.0000
    10 N1       1.4332   8.5553   2.9242   N.2       1 RES1   0.0000
    11 N2       2.4433   9.1721   2.4197   N.2       1 RES1   0.0000
    12 N3       4.1239   4.0803   1.7883   N.am      1 RES1   0.0000
    13 N4       0.7920   4.8322   3.3710   N.2       1 RES1   0.0000
    14 N5       1.3599   3.9497   4.1029   N.2       1 RES1   0.0000
    15 N6       4.0786   8.2677   5.8195   N.am      1 RES1   0.0000
    16 C1      -0.5747   8.5618   4.1328   C.ar      1 RES1   0.0000
    17 C2      -1.6784   9.2083   4.7224   C.ar      1 RES1   0.0000
    18 C3      -1.8420  10.5769   4.5554   C.ar      1 RES1   0.0000
    19 C4      -0.8981  11.3154   3.8395   C.ar      1 RES1   0.0000
    20 C5       0.2069  10.7190   3.2746   C.ar      1 RES1   0.0000
    21 C6       0.3561   9.3377   3.4140   C.ar      1 RES1   0.0000
    22 C7       3.6282   7.0255   1.9924   C.ar      1 RES1   0.0000
    23 C8       3.5627   8.4361   2.0446   C.ar      1 RES1   0.0000
    24 C9       4.7379   9.2305   1.7440   C.ar      1 RES1   0.0000
    25 C10      4.7113  10.6431   1.6743   C.ar      1 RES1   0.0000
    26 C11      5.8679  11.3467   1.3970   C.ar      1 RES1   0.0000
    27 C12      7.0961  10.6883   1.1850   C.ar      1 RES1   0.0000
    28 C13      7.1426   9.3223   1.2387   C.ar      1 RES1   0.0000
    29 C14      5.9704   8.5620   1.5219   C.ar      1 RES1   0.0000
    30 C15      6.0256   7.1641   1.6221   C.ar      1 RES1   0.0000
    31 C16      4.9095   6.3908   1.8471   C.ar      1 RES1   0.0000
    32 C17      5.1387   4.9296   2.0766   C.2       1 RES1   0.0000
    33 C18      4.0630   2.6856   1.9909   C.ar      1 RES1   0.0000
    34 C19      5.1585   1.8952   2.3307   C.ar      1 RES1   0.0000
    35 C20      4.9676   0.5291   2.5151   C.ar      1 RES1   0.0000
    36 C21      3.7329  -0.0576   2.3423   C.ar      1 RES1   0.0000
    37 C22      2.6437   0.7323   1.9938   C.ar      1 RES1   0.0000
    38 C23      2.8040   2.0967   1.8268   C.ar      1 RES1   0.0000
    39 C24     -0.5188   5.3731   1.5117   C.ar      1 RES1   0.0000
    40 C25     -1.3439   5.0141   0.4298   C.ar      1 RES1   0.0000
    41 C26     -1.7464   3.6985   0.2788   C.ar      1 RES1   0.0000
    42 C27     -1.3224   2.7206   1.1821   C.ar      1 RES1   0.0000
    43 C28     -0.5271   3.0252   2.2610   C.ar      1 RES1   0.0000
    44 C29     -0.1325   4.3571   2.4149   C.ar      1 RES1   0.0000
    45 C30      2.8676   5.6451   5.1464   C.ar      1 RES1   0.0000
    46 C31      2.4084   4.3213   4.9344   C.ar      1 RES1   0.0000
    47 C32      3.0558   3.2001   5.5792   C.ar      1 RES1   0.0000
    48 C33      2.6332   1.8592   5.3947   C.ar      1 RES1   0.0000
    49 C34      3.2482   0.8326   6.0613   C.ar      1 RES1   0.0000
    50 C35      4.3072   1.0854   6.9645   C.ar      1 RES1   0.0000
    51 C36      4.7545   2.3650   7.1402   C.ar      1 RES1   0.0000
    52 C37      4.1510   3.4355   6.4403   C.ar      1 RES1   0.0000
    53 C38      4.6412   4.7636   6.5652   C.ar      1 RES1   0.0000
    54 C39      4.0644   5.8333   5.9393   C.ar      1 RES1   0.0000
    55 C40      4.7535   7.1480   6.1049   C.2       1 RES1   0.0000
    56 C41      4.5313   9.6097   5.9887   C.ar      1 RES1   0.0000
    57 C42      5.4242   9.9625   6.9965   C.ar      1 RES1   0.0000
    58 C43      5.7861  11.2914   7.1562   C.ar      1 RES1   0.0000
    59 C44      5.2720  12.2639   6.3227   C.ar      1 RES1   0.0000
    60 C45      4.3692  11.9156   5.3250   C.ar      1 RES1   0.0000
    61 C46      3.9997  10.5911   5.1659   C.ar      1 RES1   0.0000
    62 H1      -2.3077   8.7103   5.2307   H         1 RES1   0.0000
    63 H2      -2.5991  11.0122   4.9301   H         1 RES1   0.0000
    64 H3       3.4099   4.4455   1.4275   H         1 RES1   0.0000
    65 H4       3.8961  11.1084   1.8195   H         1 RES1   0.0000
    66 H5       0.8500  11.2344   2.8027   H         1 RES1   0.0000
    67 H6       3.2682   8.1649   5.4920   H         1 RES1   0.0000
    68 H12      5.8336  12.2945   1.3491   H         1 RES1   0.0000
    69 H13      7.8828  11.1893   1.0078   H         1 RES1   0.0000
    70 H14      7.9665   8.8745   1.0862   H         1 RES1   0.0000
    71 H15      6.8672   6.7344   1.5306   H         1 RES1   0.0000
    72 H16      6.0197   2.2823   2.4338   H         1 RES1   0.0000
    73 H17      5.7069  -0.0123   2.7664   H         1 RES1   0.0000
    74 H18      3.6264  -0.9938   2.4599   H         1 RES1   0.0000
    75 H19      1.7891   0.3345   1.8718   H         1 RES1   0.0000
    76 H20      2.0554   2.6374   1.6003   H         1 RES1   0.0000
    77 H21     -1.6223   5.6727  -0.1960   H         1 RES1   0.0000
    78 H22     -2.3155   3.4579  -0.4429   H         1 RES1   0.0000
    79 H23     -0.2568   2.3562   2.8782   H         1 RES1   0.0000
    80 H24      1.9158   1.6702   4.8008   H         1 RES1   0.0000
    81 H25      2.9599  -0.0603   5.9146   H         1 RES1   0.0000
    82 H26      4.7054   0.3699   7.4452   H         1 RES1   0.0000
    83 H27      5.4736   2.5348   7.7371   H         1 RES1   0.0000
    84 H28      5.4052   4.9146   7.1097   H         1 RES1   0.0000
    85 H29      5.7837   9.2974   7.5715   H         1 RES1   0.0000
    86 H30      6.3938  11.5350   7.8445   H         1 RES1   0.0000
    87 H31      5.5345  13.1709   6.4316   H         1 RES1   0.0000
    88 H32      4.0059  12.5834   4.7558   H         1 RES1   0.0000
    89 H33      3.3791  10.3531   4.4872   H         1 RES1   0.0000
    90 O7      -1.9313   3.1975   5.9045   O.3       2 RES2   0.0000
    91 C47     -2.3401   1.9544   5.3676   C.3       2 RES2   0.0000
    92 H11     -1.3732   3.0676   6.5187   H         2 RES2   0.0000
    93 H34     -3.0996   2.0939   4.7631   H         2 RES2   0.0000
    94 H35     -2.6087   1.3562   6.0961   H         2 RES2   0.0000
    95 H36     -1.5972   1.5528   4.8720   H         2 RES2   0.0000
    96 N7      -2.5205   5.5822   4.6707   N.4       3 RES3   1.0000
    97 H7      -1.7025   6.2202   4.4392   H         3 RES3   0.0000
    98 H8      -3.0594   6.1168   5.2452   H         3 RES3   0.0000
    99 H9      -2.2485   4.7960   5.0593   H         3 RES3   0.0000
   100 H10     -2.9681   5.3467   3.9949   H         3 RES3   0.0000
@<TRIPOS>BOND
     1     1     4    1
     2     2    19    1
     3     3    42    1
     4     4    16    1
     5     5     1    1
     6     6    32    2
     7     7     1    1
     8     8     1    1
     9     9    55    2
    10    10     1    1
    11    11    10    2
    12    12    32   am
    13    13     1    1
    14    14    13    2
    15    15    55   am
    16    16    17   ar
    17    17    18   ar
    18    18    19   ar
    19    19    20   ar
    20    20    21   ar
    21    21    10    1
    22    22     5    1
    23    23    11    1
    24    24    23   ar
    25    25    24   ar
    26    26    25   ar
    27    27    26   ar
    28    28    27   ar
    29    29    24   ar
    30    30    29   ar
    31    31    22   ar
    32    32    31    1
    33    33    12    1
    34    34    33   ar
    35    35    34   ar
    36    36    35   ar
    37    37    36   ar
    38    38    33   ar
    39    39     7    1
    40    40    39   ar
    41    41    40   ar
    42    42    41   ar
    43    43    42   ar
    44    44    13    1
    45    45     8    1
    46    46    14    1
    47    47    46   ar
    48    48    47   ar
    49    49    48   ar
    50    50    49   ar
    51    51    50   ar
    52    52    47   ar
    53    53    52   ar
    54    54    45   ar
    55    55    54    1
    56    56    15    1
    57    57    56   ar
    58    58    57   ar
    59    59    58   ar
    60    60    59   ar
    61    61    56   ar
    62    62    17    1
    63    63    18    1
    64    64    12    1
    65    65    25    1
    66    66    20    1
    67    67    15    1
    68    68    26    1
    69    69    27    1
    70    70    28    1
    71    71    30    1
    72    72    34    1
    73    73    35    1
    74    74    36    1
    75    75    37    1
    76    76    38    1
    77    77    40    1
    78    78    41    1
    79    79    43    1
    80    80    48    1
    81    81    49    1
    82    82    50    1
    83    83    51    1
    84    84    53    1
    85    85    57    1
    86    86    58    1
    87    87    59    1
    88    88    60    1
    89    89    61    1
    90    16    21   ar
    91    22    23   ar
    92    28    29   ar
    93    30    31   ar
    94    37    38   ar
    95    39    44   ar
    96    43    44   ar
    97    45    46   ar
    98    51    52   ar
    99    53    54   ar
   100    60    61   ar
   101    90    91    1
   102    91    93    1
   103    92    90    1
   104    94    91    1
   105    95    91    1
   106    96    97    1
   107    98    96    1
   108    99    96    1
   109   100    96    1
@<TRIPOS>SUBSTRUCTURE
     1 RES1        1 GROUP             0 ****  ****    0  
     2 RES2       90 GROUP             0 ****  ****    0  
     3 RES3       96 GROUP             0 ****  ****    0  
@<TRIPOS>CRYSIN
   10.1107   14.1645   15.3877  103.2240  102.8270   94.0860     2     1
