@<TRIPOS>MOLECULE
YICKIF
   105   108     9     0     0
SMALL
USER_CHARGES
****
Generated from the CSD

@<TRIPOS>ATOM
     1 C1       4.1788   9.5773   4.0341   C.ar      1 RES1   0.0000
     2 H1       4.5950   9.6864   4.8796   H         1 RES1   0.0000
     3 C2       4.9351   9.8031   2.8791   C.ar      1 RES1   0.0000
     4 H2       5.8418  10.0817   2.9546   H         1 RES1   0.0000
     5 C3       4.3721   9.6244   1.6376   C.ar      1 RES1   0.0000
     6 H3       4.8830   9.7716   0.8510   H         1 RES1   0.0000
     7 C4       3.0231   9.2193   1.5547   C.ar      1 RES1   0.0000
     8 C5       2.3282   8.9885   0.3187   C.ar      1 RES1   0.0000
     9 H4       2.7890   9.0993  -0.5047   H         1 RES1   0.0000
    10 C6       1.0312   8.6167   0.3113   C.ar      1 RES1   0.0000
    11 H5       0.5983   8.4578  -0.5195   H         1 RES1   0.0000
    12 C7       0.2954   8.4559   1.5326   C.ar      1 RES1   0.0000
    13 C8      -1.0758   8.1087   1.5952   C.ar      1 RES1   0.0000
    14 H6      -1.5701   7.9394   0.8013   H         1 RES1   0.0000
    15 C9      -1.6760   8.0201   2.8239   C.ar      1 RES1   0.0000
    16 H7      -2.5976   7.7998   2.8828   H         1 RES1   0.0000
    17 C10     -0.9365   8.2543   3.9972   C.ar      1 RES1   0.0000
    18 H8      -1.3750   8.1880   4.8372   H         1 RES1   0.0000
    19 C11      0.9551   8.6718   2.7413   C.ar      1 RES1   0.0000
    20 C12      2.3337   9.0404   2.7612   C.ar      1 RES1   0.0000
    21 C13      1.4456  11.8507   4.8206   C.ar      1 RES1   0.0000
    22 H9       2.0643  11.7127   4.1133   H         1 RES1   0.0000
    23 C14      0.9643  13.1386   5.0472   C.ar      1 RES1   0.0000
    24 H10      1.2579  13.8549   4.4964   H         1 RES1   0.0000
    25 C15      0.0725  13.3777   6.0548   C.ar      1 RES1   0.0000
    26 H11     -0.2434  14.2573   6.2169   H         1 RES1   0.0000
    27 C16     -0.3753  12.2947   6.8543   C.ar      1 RES1   0.0000
    28 C17     -1.3267  12.4017   7.9245   C.ar      1 RES1   0.0000
    29 H12     -1.6890  13.2513   8.1437   H         1 RES1   0.0000
    30 C18     -1.7150  11.3136   8.6226   C.ar      1 RES1   0.0000
    31 H13     -2.3337  11.4168   9.3355   H         1 RES1   0.0000
    32 C19     -1.2152  10.0067   8.3113   C.ar      1 RES1   0.0000
    33 C20     -1.6221   8.8259   8.9689   C.ar      1 RES1   0.0000
    34 H14     -2.2260   8.8626   9.7039   H         1 RES1   0.0000
    35 C21     -1.1279   7.6203   8.5268   C.ar      1 RES1   0.0000
    36 H15     -1.4196   6.8127   8.9358   H         1 RES1   0.0000
    37 C22     -0.1988   7.5758   7.4806   C.ar      1 RES1   0.0000
    38 H16      0.1245   6.7298   7.1950   H         1 RES1   0.0000
    39 C23     -0.2778   9.8800   7.2789   C.ar      1 RES1   0.0000
    40 C24      0.1525  11.0307   6.5542   C.ar      1 RES1   0.0000
    41 C25      3.4579  10.2112   7.4658   C.ar      1 RES1   0.0000
    42 H17      3.1290  11.0546   7.1822   H         1 RES1   0.0000
    43 C26      4.4055  10.1821   8.4882   C.ar      1 RES1   0.0000
    44 H18      4.7102  10.9930   8.8787   H         1 RES1   0.0000
    45 C27      4.8998   8.9812   8.9284   C.ar      1 RES1   0.0000
    46 H19      5.5259   8.9526   9.6394   H         1 RES1   0.0000
    47 C28      4.4650   7.7919   8.3113   C.ar      1 RES1   0.0000
    48 C29      4.9369   6.4749   8.6466   C.ar      1 RES1   0.0000
    49 H20      5.5668   6.3724   9.3502   H         1 RES1   0.0000
    50 C30      4.5021   5.3720   7.9816   C.ar      1 RES1   0.0000
    51 H21      4.8347   4.5165   8.2248   H         1 RES1   0.0000
    52 C31      3.5452   5.4871   6.9169   C.ar      1 RES1   0.0000
    53 C32      3.0584   4.3896   6.1598   C.ar      1 RES1   0.0000
    54 H22      3.3724   3.5081   6.3274   H         1 RES1   0.0000
    55 C33      2.1275   4.6254   5.1835   C.ar      1 RES1   0.0000
    56 H23      1.7745   3.8987   4.6843   H         1 RES1   0.0000
    57 C34      1.6853   5.9318   4.9164   C.ar      1 RES1   0.0000
    58 H24      1.0442   6.0670   4.2293   H         1 RES1   0.0000
    59 C35      3.0515   6.7589   6.5842   C.ar      1 RES1   0.0000
    60 C36      3.5246   7.9169   7.2857   C.ar      1 RES1   0.0000
    61 Fe1      1.6167   8.8939   5.4630   Fe        1 RES1   2.0000
    62 N1       2.8943   9.2146   3.9969   N.ar      1 RES1   0.0000
    63 N2       0.3573   8.5653   3.9740   N.ar      1 RES1   0.0000
    64 N3       1.0714  10.7940   5.5639   N.ar      1 RES1   0.0000
    65 N4       0.2508   8.6737   6.8661   N.ar      1 RES1   0.0000
    66 N5       2.9863   9.1083   6.8638   N.ar      1 RES1   0.0000
    67 N6       2.1383   6.9933   5.5961   N.ar      1 RES1   0.0000
    68 Cl1     16.9433   4.1546   7.1098   Cl        2 RES2  -1.0000
    69 Cl2     14.3888   1.7230   1.8693   Cl        3 RES3  -1.0000
    70 C37     16.4068   4.5946   3.3415   C.3       4 RES4   0.0000
    71 H25     15.6859   5.1249   3.7430   H         4 RES4   0.0000
    72 H26     16.1579   3.6478   3.3470   H         4 RES4   0.0000
    73 H27     16.5518   4.8882   2.4186   H         4 RES4   0.0000
    74 O1      17.5917   4.7729   4.0825   O.3       4 RES4   0.0000
    75 H43     17.4158   4.7461   4.9035   H         4 RES4   0.0000
    76 C38     11.0277   5.0894   7.8490   C.3       5 RES5   0.0000
    77 H28     11.1894   5.1438   8.8142   H         5 RES5   0.0000
    78 H29     10.0634   5.0965   7.6795   H         5 RES5   0.0000
    79 H30     11.4439   5.8563   7.4050   H         5 RES5   0.0000
    80 O2      11.5833   3.8996   7.3461   O.3       5 RES5   0.0000
    81 H44     12.3730   4.0431   7.0974   H         5 RES5   0.0000
    82 C39     14.2570   6.2990   6.1009   C.3       6 RES6   0.0000
    83 H31     13.7517   6.8127   6.7658   H         6 RES6   0.0000
    84 H32     13.9263   6.5120   5.2038   H         6 RES6   0.0000
    85 H33     15.2065   6.5286   6.1617   H         6 RES6   0.0000
    86 O3      14.0880   4.8962   6.3514   O.3       6 RES6   0.0000
    87 H45     14.8312   4.5544   6.5374   H         6 RES6   0.0000
    88 C40     13.6866   1.7114   5.5906   C.3       7 RES7   0.0000
    89 H34     14.0248   1.4156   6.4619   H         7 RES7   0.0000
    90 H35     12.7427   1.9553   5.6735   H         7 RES7   0.0000
    91 H36     14.2013   2.4879   5.2885   H         7 RES7   0.0000
    92 O4      13.8260   0.6214   4.6143   O.3       7 RES7   0.0000
    93 H46     13.9802   0.9445   3.8536   H         7 RES7   0.0000
    94 C41     17.2523   0.6391   8.3076   C.3       8 RES8   0.0000
    95 H37     18.1497   0.8569   7.9816   H         8 RES8   0.0000
    96 H38     17.1742  -0.3290   8.4347   H         8 RES8   0.0000
    97 H39     17.0981   1.0936   9.1642   H         8 RES8   0.0000
    98 O5      16.2954   1.0700   7.3719   O.3       8 RES8   0.0000
    99 H47     16.4719   1.8535   7.1306   H         8 RES8   0.0000
   100 C42     11.0389  -0.2036   2.9878   C.3       9 RES9   0.0000
   101 H40     10.8475   0.7409   3.1702   H         9 RES9   0.0000
   102 H41     10.2083  -0.6604   2.7354   H         9 RES9   0.0000
   103 H42     11.6855  -0.2699   2.2547   H         9 RES9   0.0000
   104 O6      11.5721  -0.8048   4.1391   O.3       9 RES9   0.0000
   105 H48     12.3246  -0.4734   4.3067   H         9 RES9   0.0000
@<TRIPOS>BOND
     1     1     2    1
     2     3     1   ar
     3     4     3    1
     4     5     3   ar
     5     6     5    1
     6     7     5   ar
     7     8     7   ar
     8     9     8    1
     9    10     8   ar
    10    11    10    1
    11    12    10   ar
    12    13    12   ar
    13    14    13    1
    14    15    13   ar
    15    16    15    1
    16    17    15   ar
    17    18    17    1
    18    19    12   ar
    19    20     7   ar
    20    21    22    1
    21    23    21   ar
    22    24    23    1
    23    25    23   ar
    24    26    25    1
    25    27    25   ar
    26    28    27   ar
    27    29    28    1
    28    30    28   ar
    29    31    30    1
    30    32    30   ar
    31    33    32   ar
    32    34    33    1
    33    35    33   ar
    34    36    35    1
    35    37    35   ar
    36    38    37    1
    37    39    32   ar
    38    40    27   ar
    39    41    42    1
    40    43    41   ar
    41    44    43    1
    42    45    43   ar
    43    46    45    1
    44    47    45   ar
    45    48    47   ar
    46    49    48    1
    47    50    48   ar
    48    51    50    1
    49    52    50   ar
    50    53    52   ar
    51    54    53    1
    52    55    53   ar
    53    56    55    1
    54    57    55   ar
    55    58    57    1
    56    59    52   ar
    57    60    47   ar
    58    61    62    1
    59    62     1   ar
    60    63    17   ar
    61    64    21   ar
    62    65    37   ar
    63    66    41   ar
    64    67    57   ar
    65    19    20   ar
    66    19    63   ar
    67    20    62   ar
    68    39    40   ar
    69    39    65   ar
    70    40    64   ar
    71    59    60   ar
    72    59    67   ar
    73    60    66   ar
    74    61    63    1
    75    61    64    1
    76    61    65    1
    77    61    66    1
    78    61    67    1
    79    70    71    1
    80    72    70    1
    81    73    70    1
    82    74    70    1
    83    75    74    1
    84    76    77    1
    85    78    76    1
    86    79    76    1
    87    80    76    1
    88    81    80    1
    89    82    83    1
    90    84    82    1
    91    85    82    1
    92    86    82    1
    93    87    86    1
    94    88    89    1
    95    90    88    1
    96    91    88    1
    97    92    88    1
    98    93    92    1
    99    94    95    1
   100    96    94    1
   101    97    94    1
   102    98    94    1
   103    99    98    1
   104   100   101    1
   105   102   100    1
   106   103   100    1
   107   104   100    1
   108   105   104    1
@<TRIPOS>SUBSTRUCTURE
     1 RES1        1 GROUP             0 ****  ****    0  
     2 RES2       68 GROUP             0 ****  ****    0  
     3 RES3       69 GROUP             0 ****  ****    0  
     4 RES4       70 GROUP             0 ****  ****    0  
     5 RES5       76 GROUP             0 ****  ****    0  
     6 RES6       82 GROUP             0 ****  ****    0  
     7 RES7       88 GROUP             0 ****  ****    0  
     8 RES8       94 GROUP             0 ****  ****    0  
     9 RES9      100 GROUP             0 ****  ****    0  
@<TRIPOS>CRYSIN
   18.5808   23.6715   18.4205   90.0000   90.0000   90.0000    61     1
