@<TRIPOS>MOLECULE
YIDTOW
    87    96     1     0     0
SMALL
NO_CHARGES
****
Generated from the CSD

@<TRIPOS>ATOM
     1 Fe1     13.2964   4.6509   0.0000   Fe        1 RES1   0.0000
     2 S1      15.7771   2.3224   3.4951   S.2       1 RES1   0.0000
     3 F1       5.8588   1.9106   5.4347   F         1 RES1   0.0000
     4 N1      13.1090   2.9486  -1.3804   N.ar      1 RES1   0.0000
     5 N2      11.4776   3.6528   0.5852   N.2       1 RES1   0.0000
     6 N3      10.5766   3.7951   1.6234   N.2       1 RES1   0.0000
     7 N4      10.2929   1.8222   0.6790   N.pl3     1 RES1   0.0000
     8 N5      14.3189   3.4695   1.4273   N.2       1 RES1   0.0000
     9 C1      13.8734   2.7384  -2.4539   C.ar      1 RES1   0.0000
    10 H1      14.5546   3.3440  -2.6400   H         1 RES1   0.0000
    11 C2      13.6988   1.6622  -3.2990   C.ar      1 RES1   0.0000
    12 H2      14.2481   1.5459  -4.0419   H         1 RES1   0.0000
    13 C3      12.7039   0.7720  -3.0213   C.ar      1 RES1   0.0000
    14 H3      12.5701   0.0335  -3.5698   H         1 RES1   0.0000
    15 C4      11.8987   0.9739  -1.9257   C.ar      1 RES1   0.0000
    16 H4      11.2153   0.3739  -1.7293   H         1 RES1   0.0000
    17 C5      12.1124   2.0696  -1.1236   C.ar      1 RES1   0.0000
    18 C6      11.2999   2.4808   0.0346   C.2       1 RES1   0.0000
    19 C7       9.8707   2.6947   1.6654   C.2       1 RES1   0.0000
    20 C8       8.8026   2.4408   2.6367   C.ar      1 RES1   0.0000
    21 C9       8.0168   3.5114   3.0356   C.ar      1 RES1   0.0000
    22 H5       8.1575   4.3523   2.6623   H         1 RES1   0.0000
    23 C10      7.0280   3.3365   3.9842   C.ar      1 RES1   0.0000
    24 H6       6.4954   4.0509   4.2517   H         1 RES1   0.0000
    25 C11      6.8484   2.0975   4.5188   C.ar      1 RES1   0.0000
    26 C12      7.6217   1.0269   4.1778   C.ar      1 RES1   0.0000
    27 H7       7.4892   0.1963   4.5743   H         1 RES1   0.0000
    28 C13      8.6033   1.2129   3.2313   C.ar      1 RES1   0.0000
    29 H8       9.1426   0.4958   2.9881   H         1 RES1   0.0000
    30 C14      9.7501   0.5135   0.3751   C.ar      1 RES1   0.0000
    31 C15      8.5954   0.4139  -0.3587   C.ar      1 RES1   0.0000
    32 H9       8.1597   1.1776  -0.6612   H         1 RES1   0.0000
    33 C16      8.0899  -0.8446  -0.6401   C.ar      1 RES1   0.0000
    34 H10      7.3087  -0.9190  -1.1396   H         1 RES1   0.0000
    35 C17      8.7181  -1.9924  -0.1945   C.ar      1 RES1   0.0000
    36 C18      9.8753  -1.8510   0.5337   C.ar      1 RES1   0.0000
    37 H11     10.3133  -2.6101   0.8440   H         1 RES1   0.0000
    38 C19     10.3993  -0.6055   0.8150   C.ar      1 RES1   0.0000
    39 H12     11.1891  -0.5283   1.3001   H         1 RES1   0.0000
    40 C20      8.1658  -3.3598  -0.4991   C.3       1 RES1   0.0000
    41 H13      8.7305  -4.0276  -0.1049   H         1 RES1   0.0000
    42 H14      8.1324  -3.4872  -1.4495   H         1 RES1   0.0000
    43 H15      7.2798  -3.4351  -0.1351   H         1 RES1   0.0000
    44 C21     14.9216   2.9933   2.2806   C.1       1 RES1   0.0000
    45 S1B     10.8157   6.9793  -3.4951   S.2       1 RES1   0.0000
    46 F1B     20.7340   7.3911  -5.4347   F         1 RES1   0.0000
    47 N1B     13.4838   6.3531   1.3804   N.ar      1 RES1   0.0000
    48 N2B     15.1152   5.6489  -0.5852   N.2       1 RES1   0.0000
    49 N3B     16.0162   5.5066  -1.6234   N.2       1 RES1   0.0000
    50 N4B     16.2999   7.4795  -0.6790   N.pl3     1 RES1   0.0000
    51 N5B     12.2739   5.8322  -1.4273   N.2       1 RES1   0.0000
    52 C1B     12.7194   6.5633   2.4539   C.ar      1 RES1   0.0000
    53 H1B     12.0382   5.9577   2.6400   H         1 RES1   0.0000
    54 C2B     12.8940   7.6395   3.2990   C.ar      1 RES1   0.0000
    55 H2B     12.3447   7.7558   4.0419   H         1 RES1   0.0000
    56 C3B     13.8889   8.5297   3.0213   C.ar      1 RES1   0.0000
    57 H3B     14.0227   9.2682   3.5698   H         1 RES1   0.0000
    58 C4B     14.6941   8.3278   1.9257   C.ar      1 RES1   0.0000
    59 H4B     15.3775   8.9278   1.7293   H         1 RES1   0.0000
    60 C5B     14.4804   7.2321   1.1236   C.ar      1 RES1   0.0000
    61 C6B     15.2929   6.8209  -0.0346   C.2       1 RES1   0.0000
    62 C7B     16.7221   6.6070  -1.6654   C.2       1 RES1   0.0000
    63 C8B     17.7902   6.8609  -2.6367   C.ar      1 RES1   0.0000
    64 C9B     18.5760   5.7903  -3.0356   C.ar      1 RES1   0.0000
    65 H5B     18.4353   4.9494  -2.6623   H         1 RES1   0.0000
    66 C10B    19.5648   5.9652  -3.9842   C.ar      1 RES1   0.0000
    67 H6B     20.0974   5.2508  -4.2517   H         1 RES1   0.0000
    68 C11B    19.7444   7.2042  -4.5188   C.ar      1 RES1   0.0000
    69 C12B    18.9711   8.2748  -4.1778   C.ar      1 RES1   0.0000
    70 H7B     19.1036   9.1054  -4.5743   H         1 RES1   0.0000
    71 C13B    17.9895   8.0888  -3.2313   C.ar      1 RES1   0.0000
    72 H8B     17.4502   8.8059  -2.9881   H         1 RES1   0.0000
    73 C14B    16.8427   8.7882  -0.3751   C.ar      1 RES1   0.0000
    74 C15B    17.9974   8.8878   0.3587   C.ar      1 RES1   0.0000
    75 H9B     18.4331   8.1241   0.6612   H         1 RES1   0.0000
    76 C16B    18.5029  10.1463   0.6401   C.ar      1 RES1   0.0000
    77 H10B    19.2841  10.2207   1.1396   H         1 RES1   0.0000
    78 C17B    17.8747  11.2941   0.1945   C.ar      1 RES1   0.0000
    79 C18B    16.7175  11.1527  -0.5337   C.ar      1 RES1   0.0000
    80 H11B    16.2795  11.9118  -0.8440   H         1 RES1   0.0000
    81 C19B    16.1935   9.9072  -0.8150   C.ar      1 RES1   0.0000
    82 H12B    15.4037   9.8300  -1.3001   H         1 RES1   0.0000
    83 C20B    18.4270  12.6615   0.4991   C.3       1 RES1   0.0000
    84 H13B    17.8623  13.3293   0.1049   H         1 RES1   0.0000
    85 H14B    18.4604  12.7889   1.4495   H         1 RES1   0.0000
    86 H15B    19.3130  12.7368   0.1351   H         1 RES1   0.0000
    87 C21B    11.6712   6.3084  -2.2806   C.1       1 RES1   0.0000
@<TRIPOS>BOND
     1     1     4    1
     2     2    44    2
     3     3    25    1
     4     4     9   ar
     5     5     1    1
     6     6     5    1
     7     7    18    1
     8     8     1    1
     9     9    10    1
    10    11     9   ar
    11    12    11    1
    12    13    11   ar
    13    14    13    1
    14    15    13   ar
    15    16    15    1
    16    17     4   ar
    17    18     5    2
    18    19     6    2
    19    20    19    1
    20    21    20   ar
    21    22    21    1
    22    23    21   ar
    23    24    23    1
    24    25    23   ar
    25    26    25   ar
    26    27    26    1
    27    28    20   ar
    28    29    28    1
    29    30     7    1
    30    31    30   ar
    31    32    31    1
    32    33    31   ar
    33    34    33    1
    34    35    33   ar
    35    36    35   ar
    36    37    36    1
    37    38    30   ar
    38    39    38    1
    39    40    35    1
    40    41    40    1
    41    42    40    1
    42    43    40    1
    43    44     8    2
    44    45    87    2
    45    46    68    1
    46    47     1    1
    47    48     1    1
    48    49    48    1
    49    50    61    1
    50    51     1    1
    51    52    47   ar
    52    53    52    1
    53    54    52   ar
    54    55    54    1
    55    56    54   ar
    56    57    56    1
    57    58    56   ar
    58    59    58    1
    59    60    47   ar
    60    61    48    2
    61    62    49    2
    62    63    62    1
    63    64    63   ar
    64    65    64    1
    65    66    64   ar
    66    67    66    1
    67    68    66   ar
    68    69    68   ar
    69    70    69    1
    70    71    63   ar
    71    72    71    1
    72    73    50    1
    73    74    73   ar
    74    75    74    1
    75    76    74   ar
    76    77    76    1
    77    78    76   ar
    78    79    78   ar
    79    80    79    1
    80    81    73   ar
    81    82    81    1
    82    83    78    1
    83    84    83    1
    84    85    83    1
    85    86    83    1
    86    87    51    2
    87     7    19    1
    88    15    17   ar
    89    17    18    1
    90    26    28   ar
    91    36    38   ar
    92    50    62    1
    93    58    60   ar
    94    60    61    1
    95    69    71   ar
    96    79    81   ar
@<TRIPOS>SUBSTRUCTURE
     1 RES1        1 GROUP             0 ****  ****    0  
@<TRIPOS>CRYSIN
   13.2964    9.3017   16.2630   90.0000  102.2270   90.0000    14     1
