@<TRIPOS>MOLECULE
YIGTUG
   161   176     2     0     0
SMALL
NO_CHARGES
****
Generated from the CSD

@<TRIPOS>ATOM
     1 Fe1      8.2249   9.8665   4.9568   Fe        1 RES1   0.0000
     2 P1      10.1036   8.9971   4.3689   P.3       1 RES1   0.0000
     3 P2       8.0087   7.6957   5.0386   P.3       1 RES1   0.0000
     4 P3       6.2557  10.5274   5.7393   P.3       1 RES1   0.0000
     5 K1      11.5569  14.3731   4.8731   K         1 RES1   0.0000
     6 P4       5.4364  10.8948   3.0963   P.3       1 RES1   0.0000
     7 N1       9.6254   7.3848   4.5654   N.3       1 RES1   0.0000
     8 N2       5.0305  10.7231   4.6399   N.2       1 RES1   0.0000
     9 O1      11.8397  15.1237   7.6277   O.3       1 RES1   0.0000
    10 C1      11.6680   9.1963   5.2996   C.ar      1 RES1   0.0000
    11 C2       4.2913   8.7845   6.8044   C.ar      1 RES1   0.0000
    12 H1       3.8046   8.9450   6.0048   H         1 RES1   0.0000
    13 O2      13.6120  13.3727   6.3428   O.3       1 RES1   0.0000
    14 O3       9.5837  15.7762   6.1811   O.3       1 RES1   0.0000
    15 C3       6.0854  12.0809   6.7390   C.ar      1 RES1   0.0000
    16 C4       7.8281   6.7165   6.5918   C.ar      1 RES1   0.0000
    17 C5       5.5207   9.3921   6.9916   C.ar      1 RES1   0.0000
    18 C6       7.0003   6.7672   3.8402   C.ar      1 RES1   0.0000
    19 N3       9.7210  12.5246   4.8525   N.1       1 RES1   0.0000
    20 C7       9.0777  11.5819   4.8889   C.1       1 RES1   0.0000
    21 B1       7.2515  10.4470   2.5626   B         1 RES1   0.0000
    22 C8       8.7644   6.8965   7.6059   C.ar      1 RES1   0.0000
    23 H2       9.5016   7.4787   7.4642   H         1 RES1   0.0000
    24 C9       4.1542   9.9966   2.1318   C.ar      1 RES1   0.0000
    25 C10      3.7550   7.9374   7.7822   C.ar      1 RES1   0.0000
    26 H3       2.9222   7.5038   7.6332   H         1 RES1   0.0000
    27 C11      6.2073   9.1193   8.1730   C.ar      1 RES1   0.0000
    28 H4       7.0693   9.4952   8.3056   H         1 RES1   0.0000
    29 O4       9.4582  15.6447   3.3750   O.3       1 RES1   0.0000
    30 C12     10.6959   9.1752   2.6498   C.ar      1 RES1   0.0000
    31 O5      11.6577  14.2137   2.1282   O.3       1 RES1   0.0000
    32 O6      13.9646  13.7822   3.6276   O.3       1 RES1   0.0000
    33 C13      5.0888  12.6286   2.5971   C.ar      1 RES1   0.0000
    34 C14      7.4924   5.6982   3.0969   C.ar      1 RES1   0.0000
    35 H5       8.3788   5.3912   3.2477   H         1 RES1   0.0000
    36 C15     11.4208   9.6130  -0.0127   C.ar      1 RES1   0.0000
    37 H6      11.6806   9.7582  -0.9142   H         1 RES1   0.0000
    38 C16     11.7120  10.0323   6.4064   C.ar      1 RES1   0.0000
    39 H7      10.9302  10.4940   6.6845   H         1 RES1   0.0000
    40 C17     10.6634   8.1426   1.7211   C.ar      1 RES1   0.0000
    41 H8      10.3913   7.2736   1.9937   H         1 RES1   0.0000
    42 C18      2.9017   9.8296   2.6734   C.ar      1 RES1   0.0000
    43 H9       2.7211  10.1606   3.5458   H         1 RES1   0.0000
    44 C19      4.8235  12.4206   7.2370   C.ar      1 RES1   0.0000
    45 H10      4.1073  11.8039   7.1370   H         1 RES1   0.0000
    46 C20     11.0195   8.3643   0.4162   C.ar      1 RES1   0.0000
    47 H11     10.9915   7.6453  -0.2054   H         1 RES1   0.0000
    48 C21      6.6562   5.1890   8.0457   C.ar      1 RES1   0.0000
    49 H12      5.9352   4.5878   8.1911   H         1 RES1   0.0000
    50 C22      4.4357   7.7348   8.9563   C.ar      1 RES1   0.0000
    51 H13      4.0524   7.1908   9.6360   H         1 RES1   0.0000
    52 C23     14.0419   9.5249   6.7154   C.ar      1 RES1   0.0000
    53 H14     14.8524   9.6504   7.1952   H         1 RES1   0.0000
    54 C24     14.0100   8.6811   5.6413   C.ar      1 RES1   0.0000
    55 H15     14.7958   8.2172   5.3759   H         1 RES1   0.0000
    56 C25     12.8093   8.4976   4.9307   C.ar      1 RES1   0.0000
    57 H16     12.7811   7.8953   4.1964   H         1 RES1   0.0000
    58 C26      5.6646   8.3132   9.1580   C.ar      1 RES1   0.0000
    59 H17      6.1390   8.1601   9.9668   H         1 RES1   0.0000
    60 C27      7.5673   5.3860   9.0472   C.ar      1 RES1   0.0000
    61 H18      7.4698   4.9457   9.8832   H         1 RES1   0.0000
    62 C28      6.7567   5.8369   6.8263   C.ar      1 RES1   0.0000
    63 H19      6.1034   5.6894   6.1538   H         1 RES1   0.0000
    64 C29      7.1012  12.9865   6.9517   C.ar      1 RES1   0.0000
    65 H20      7.9818  12.7857   6.6591   H         1 RES1   0.0000
    66 C30     12.9008  10.1954   7.1043   C.ar      1 RES1   0.0000
    67 H21     12.9287  10.7735   7.8567   H         1 RES1   0.0000
    68 C31      8.6390   6.2450   8.8200   C.ar      1 RES1   0.0000
    69 H22      9.2874   6.3839   9.4997   H         1 RES1   0.0000
    70 C32     11.4332  10.6454   0.8996   C.ar      1 RES1   0.0000
    71 H23     11.6886  11.5172   0.6252   H         1 RES1   0.0000
    72 C33      4.5859  13.6147   7.8622   C.ar      1 RES1   0.0000
    73 H24      3.7147  13.8147   8.1839   H         1 RES1   0.0000
    74 C34      5.5914  14.5145   8.0276   C.ar      1 RES1   0.0000
    75 H25      5.4246  15.3546   8.4401   H         1 RES1   0.0000
    76 C35      5.6847   7.1704   3.6185   C.ar      1 RES1   0.0000
    77 H26      5.3172   7.8695   4.1474   H         1 RES1   0.0000
    78 C36     10.6224  15.5173   8.2493   C.3       1 RES1   0.0000
    79 H27     10.8099  15.9572   9.1162   H         1 RES1   0.0000
    80 H28     10.0540  14.7242   8.4183   H         1 RES1   0.0000
    81 C37      4.4070   9.4663   0.8905   C.ar      1 RES1   0.0000
    82 H29      5.2767   9.5499   0.5180   H         1 RES1   0.0000
    83 C38      1.8871   9.1805   1.9574   C.ar      1 RES1   0.0000
    84 H30      1.0217   9.0790   2.3372   H         1 RES1   0.0000
    85 C39     12.4107  13.9866   8.2875   C.3       1 RES1   0.0000
    86 H31     11.8426  13.1895   8.1457   H         1 RES1   0.0000
    87 H32     12.4797  14.1562   9.2598   H         1 RES1   0.0000
    88 C40      6.8456  14.1876   7.5914   C.ar      1 RES1   0.0000
    89 H33      7.5577  14.8002   7.7295   H         1 RES1   0.0000
    90 C41      4.9099   6.5796   2.6553   C.ar      1 RES1   0.0000
    91 H34      4.0149   6.8708   2.5190   H         1 RES1   0.0000
    92 C42     11.0775  10.4152   2.2118   C.ar      1 RES1   0.0000
    93 H35     11.0960  11.1372   2.8297   H         1 RES1   0.0000
    94 C43     14.8661  13.1050   5.7394   C.3       1 RES1   0.0000
    95 H36     15.3180  12.3583   6.2065   H         1 RES1   0.0000
    96 H37     15.4484  13.9034   5.7903   H         1 RES1   0.0000
    97 C44     13.7632  13.7612   7.7095   C.3       1 RES1   0.0000
    98 H38     14.2993  14.5912   7.7677   H         1 RES1   0.0000
    99 H39     14.2328  13.0506   8.2130   H         1 RES1   0.0000
   100 C45      4.7832  13.5702   3.5422   C.ar      1 RES1   0.0000
   101 H40      4.7374  13.3249   4.4581   H         1 RES1   0.0000
   102 C46      2.1562   8.6935   0.7106   C.ar      1 RES1   0.0000
   103 H41      1.4710   8.2669   0.2108   H         1 RES1   0.0000
   104 C47      5.1949  13.0152   1.2522   C.ar      1 RES1   0.0000
   105 H42      5.4494  12.3820   0.5925   H         1 RES1   0.0000
   106 C48      6.7106   5.0802   2.1391   C.ar      1 RES1   0.0000
   107 H43      7.0452   4.3321   1.6593   H         1 RES1   0.0000
   108 C49      8.3045  15.5951   4.1964   C.3       1 RES1   0.0000
   109 H44      8.1160  14.6611   4.4618   H         1 RES1   0.0000
   110 H45      7.5200  15.9446   3.7039   H         1 RES1   0.0000
   111 C50      5.4306   5.5582   1.8847   C.ar      1 RES1   0.0000
   112 H46      4.9158   5.1841   1.1795   H         1 RES1   0.0000
   113 C51      3.4284   8.8199   0.1745   C.ar      1 RES1   0.0000
   114 H47      3.6216   8.4610  -0.6834   H         1 RES1   0.0000
   115 C52     13.8575  13.6043   2.1845   C.3       1 RES1   0.0000
   116 H48     13.5771  12.6762   1.9846   H         1 RES1   0.0000
   117 H49     14.7409  13.7569   1.7647   H         1 RES1   0.0000
   118 C53     12.8800  14.5424   1.6266   C.3       1 RES1   0.0000
   119 H50     13.1142  15.4706   1.8792   H         1 RES1   0.0000
   120 H51     12.8720  14.4797   0.6379   H         1 RES1   0.0000
   121 C54      8.5676  16.4354   5.4105   C.3       1 RES1   0.0000
   122 H52      8.8731  17.3376   5.1415   H         1 RES1   0.0000
   123 H53      7.7401  16.5299   5.9466   H         1 RES1   0.0000
   124 C55      9.9336  16.4481   7.3533   C.3       1 RES1   0.0000
   125 H54      9.1199  16.8000   7.7949   H         1 RES1   0.0000
   126 H55     10.5265  17.2109   7.1407   H         1 RES1   0.0000
   127 C56     14.6160  12.7367   4.2982   C.3       1 RES1   0.0000
   128 H56     15.4778  12.5446   3.8511   H         1 RES1   0.0000
   129 H57     14.0601  11.9189   4.2564   H         1 RES1   0.0000
   130 C57      9.3409  14.8006   2.2136   C.3       1 RES1   0.0000
   131 H58      8.5678  15.0860   1.6648   H         1 RES1   0.0000
   132 H59      9.1964  13.8616   2.4917   H         1 RES1   0.0000
   133 C58      4.9255  14.3309   0.8960   C.ar      1 RES1   0.0000
   134 H60      4.9842  14.5959  -0.0145   H         1 RES1   0.0000
   135 C59     10.5626  14.9007   1.4339   C.3       1 RES1   0.0000
   136 H61     10.7968  15.8532   1.3013   H         1 RES1   0.0000
   137 H62     10.4239  14.4907   0.5434   H         1 RES1   0.0000
   138 C60      4.5379  14.8905   3.1605   C.ar      1 RES1   0.0000
   139 H63      4.3421  15.5421   3.8239   H         1 RES1   0.0000
   140 C61      4.5742  15.2538   1.8592   C.ar      1 RES1   0.0000
   141 H64      4.3584  16.1440   1.6084   H         1 RES1   0.0000
   142 H65      7.7241   9.9609   3.4749   H         1 RES1   0.0000
   143 H66      8.5590   9.7880   6.3973   H         1 RES1   0.0000
   144 H67      7.7265  11.2719   2.5989   H         1 RES1   0.0000
   145 H68     10.0083   6.7852   4.6163   H         1 RES1   0.0000
   146 H69      7.4119  10.2218   1.5812   H         1 RES1   0.0000
   147 C62     13.1829  18.8474   2.7061   C.ar      2 RES2   0.0000
   148 H70     13.1184  19.2892   1.8683   H         2 RES2   0.0000
   149 C63     12.1065  18.2824   3.2150   C.ar      2 RES2   0.0000
   150 H71     11.2926  18.2823   2.7243   H         2 RES2   0.0000
   151 C64     14.5026  18.1547   4.6090   C.ar      2 RES2   0.0000
   152 C65     14.3914  18.8161   3.3513   C.ar      2 RES2   0.0000
   153 H72     15.1514  19.2316   2.9624   H         2 RES2   0.0000
   154 C66     12.1627  17.6948   4.4527   C.ar      2 RES2   0.0000
   155 H73     11.3742  17.3431   4.8471   H         2 RES2   0.0000
   156 C67     13.3466  17.6169   5.1124   C.ar      2 RES2   0.0000
   157 H74     13.3740  17.1762   5.9539   H         2 RES2   0.0000
   158 C68     15.8181  18.1347   5.3196   C.3       2 RES2   0.0000
   159 H75     16.4955  18.5756   4.7671   H         2 RES2   0.0000
   160 H76     15.7351  18.6076   6.1738   H         2 RES2   0.0000
   161 H77     16.0851  17.2052   5.4850   H         2 RES2   0.0000
@<TRIPOS>BOND
     1     1     2    1
     2     2     7    1
     3     3     1    1
     4     4     1    1
     5     5     9    1
     6     6     8    2
     7     7     3    1
     8     8     4    1
     9     9    78    1
    10    10     2    1
    11    11    12    1
    12    13     5    1
    13    14     5    1
    14    15     4    1
    15    16     3    1
    16    17     4    1
    17    18     3    1
    18    19     5    1
    19    20     1    1
    20    21     6    1
    21    22    16   ar
    22    23    22    1
    23    24     6    1
    24    25    11   ar
    25    26    25    1
    26    27    17   ar
    27    28    27    1
    28    29     5    1
    29    30     2    1
    30    31     5    1
    31    32     5    1
    32    33     6    1
    33    34    18   ar
    34    35    34    1
    35    36    37    1
    36    38    10   ar
    37    39    38    1
    38    40    30   ar
    39    41    40    1
    40    42    24   ar
    41    43    42    1
    42    44    15   ar
    43    45    44    1
    44    46    36   ar
    45    47    46    1
    46    48    49    1
    47    50    25   ar
    48    51    50    1
    49    52    53    1
    50    54    52   ar
    51    55    54    1
    52    56    10   ar
    53    57    56    1
    54    58    27   ar
    55    59    58    1
    56    60    48   ar
    57    61    60    1
    58    62    16   ar
    59    63    62    1
    60    64    15   ar
    61    65    64    1
    62    66    38   ar
    63    67    66    1
    64    68    22   ar
    65    69    68    1
    66    70    36   ar
    67    71    70    1
    68    72    44   ar
    69    73    72    1
    70    74    72   ar
    71    75    74    1
    72    76    18   ar
    73    77    76    1
    74    78    79    1
    75    80    78    1
    76    81    24   ar
    77    82    81    1
    78    83    42   ar
    79    84    83    1
    80    85     9    1
    81    86    85    1
    82    87    85    1
    83    88    64   ar
    84    89    88    1
    85    90    76   ar
    86    91    90    1
    87    92    30   ar
    88    93    92    1
    89    94    13    1
    90    95    94    1
    91    96    94    1
    92    97    13    1
    93    98    97    1
    94    99    97    1
    95   100    33   ar
    96   101   100    1
    97   102    83   ar
    98   103   102    1
    99   104    33   ar
   100   105   104    1
   101   106    34   ar
   102   107   106    1
   103   108    29    1
   104   109   108    1
   105   110   108    1
   106   111    90   ar
   107   112   111    1
   108   113    81   ar
   109   114   113    1
   110   115    32    1
   111   116   115    1
   112   117   115    1
   113   118    31    1
   114   119   118    1
   115   120   118    1
   116   121    14    1
   117   122   121    1
   118   123   121    1
   119   124    14    1
   120   125   124    1
   121   126   124    1
   122   127    32    1
   123   128   127    1
   124   129   127    1
   125   130    29    1
   126   131   130    1
   127   132   130    1
   128   133   104   ar
   129   134   133    1
   130   135    31    1
   131   136   135    1
   132   137   135    1
   133   138   100   ar
   134   139   138    1
   135   140   133   ar
   136   141   140    1
   137   142     1    1
   138   143     1    1
   139   144    21    1
   140   145     7    1
   141   146    21    1
   142    11    17   ar
   143    19    20    3
   144    21   142    1
   145    40    46   ar
   146    48    62   ar
   147    50    58   ar
   148    52    66   ar
   149    54    56   ar
   150    60    68   ar
   151    70    92   ar
   152    74    88   ar
   153    78   124    1
   154    85    97    1
   155    94   127    1
   156   102   113   ar
   157   106   111   ar
   158   108   121    1
   159   115   118    1
   160   130   135    1
   161   138   140   ar
   162   147   148    1
   163   149   147   ar
   164   150   149    1
   165   151   152   ar
   166   152   147   ar
   167   153   152    1
   168   154   149   ar
   169   155   154    1
   170   156   151   ar
   171   157   156    1
   172   158   151    1
   173   159   158    1
   174   160   158    1
   175   161   158    1
   176   154   156   ar
@<TRIPOS>SUBSTRUCTURE
     1 RES1        1 GROUP             0 ****  ****    0  
     2 RES2      147 GROUP             0 ****  ****    0  
@<TRIPOS>CRYSIN
   13.3230   13.3910   19.1170   93.9800  107.5900   90.0700     2     1
