@<TRIPOS>MOLECULE
YIKNUC01
    95   102     5     0     0
SMALL
USER_CHARGES
****
Generated from the CSD

@<TRIPOS>ATOM
     1 Fe1     16.5321   5.2949  -0.1814   Fe        1 RES1   2.0000
     2 N1      15.6812   3.7983   0.7598   N.2       1 RES1   0.0000
     3 N2      14.5038   3.3853   0.1643   N.pl3     1 RES1   0.0000
     4 N3      15.0314   5.0156  -1.2972   N.ar      1 RES1   0.0000
     5 N4      15.8901   6.7145  -2.5020   N.pl3     1 RES1   0.0000
     6 N5      16.8346   6.7041  -1.4991   N.2       1 RES1   0.0000
     7 N6       7.0484   4.3844  -6.5841   N.1       1 RES1   0.0000
     8 N7      15.7612   6.5878   1.0690   N.2       1 RES1   0.0000
     9 N8      16.6444   7.0251   2.0125   N.pl3     1 RES1   0.0000
    10 N9      18.0184   5.5966   0.9344   N.ar      1 RES1   0.0000
    11 N10     19.0558   4.1003  -0.3731   N.pl3     1 RES1   0.0000
    12 N11     17.8392   4.1072  -1.0314   N.2       1 RES1   0.0000
    13 N12     25.2837   6.8864   7.0816   N.1       1 RES1   0.0000
    14 C1      15.8306   2.9816   1.8163   C.2       1 RES1   0.0000
    15 H1      16.5561   3.0205   2.4278   H         1 RES1   0.0000
    16 C2      14.7714   2.0621   1.8939   C.2       1 RES1   0.0000
    17 H2      14.6526   1.3849   2.5488   H         1 RES1   0.0000
    18 C3      13.9431   2.3416   0.8340   C.2       1 RES1   0.0000
    19 H3      13.1353   1.8938   0.6115   H         1 RES1   0.0000
    20 C4      14.1211   4.0827  -1.0006   C.ar      1 RES1   0.0000
    21 C5      12.9748   3.8836  -1.7342   C.ar      1 RES1   0.0000
    22 H4      12.3337   3.2271  -1.4866   H         1 RES1   0.0000
    23 C6      12.7936   4.7032  -2.8808   C.ar      1 RES1   0.0000
    24 C7      13.7689   5.6423  -3.2036   C.ar      1 RES1   0.0000
    25 H5      13.6833   6.1806  -3.9829   H         1 RES1   0.0000
    26 C8      14.8632   5.7779  -2.3696   C.ar      1 RES1   0.0000
    27 C9      16.1134   7.7377  -3.3736   C.2       1 RES1   0.0000
    28 H6      15.6024   7.9443  -4.1472   H         1 RES1   0.0000
    29 C10     17.2133   8.4110  -2.9184   C.2       1 RES1   0.0000
    30 H7      17.6151   9.1762  -3.3098   H         1 RES1   0.0000
    31 C11     17.6288   7.7434  -1.7558   C.2       1 RES1   0.0000
    32 H8      18.3738   7.9959  -1.2253   H         1 RES1   0.0000
    33 C12     11.5717   4.5868  -3.7102   C.ar      1 RES1   0.0000
    34 C13     11.1733   5.6431  -4.5214   C.ar      1 RES1   0.0000
    35 H9      11.7213   6.4178  -4.5750   H         1 RES1   0.0000
    36 C14      9.9992   5.5952  -5.2550   C.ar      1 RES1   0.0000
    37 H10      9.7320   6.3394  -5.7809   H         1 RES1   0.0000
    38 C15      9.2306   4.4685  -5.2173   C.ar      1 RES1   0.0000
    39 C16      9.6345   3.3724  -4.4643   C.ar      1 RES1   0.0000
    40 H11      9.1196   2.5729  -4.4723   H         1 RES1   0.0000
    41 C17     10.7930   3.4451  -3.6999   C.ar      1 RES1   0.0000
    42 H12     11.0524   2.7029  -3.1660   H         1 RES1   0.0000
    43 C18      8.0001   4.4150  -5.9658   C.1       1 RES1   0.0000
    44 C19     14.6331   7.2346   1.3349   C.2       1 RES1   0.0000
    45 H13     13.8315   7.1466   0.8306   H         1 RES1   0.0000
    46 C20     14.7735   8.0629   2.4495   C.2       1 RES1   0.0000
    47 H14     14.1104   8.6291   2.8283   H         1 RES1   0.0000
    48 C21     16.0685   7.8965   2.8899   C.2       1 RES1   0.0000
    49 H15     16.4742   8.3039   3.6463   H         1 RES1   0.0000
    50 C22     17.9375   6.4704   1.9726   C.ar      1 RES1   0.0000
    51 C23     18.9858   6.7198   2.8032   C.ar      1 RES1   0.0000
    52 H16     18.9101   7.3589   3.5014   H         1 RES1   0.0000
    53 C24     20.1840   6.0134   2.6047   C.ar      1 RES1   0.0000
    54 C25     20.2732   5.1187   1.5242   C.ar      1 RES1   0.0000
    55 H17     21.0769   4.6445   1.3497   H         1 RES1   0.0000
    56 C26     19.1642   4.9492   0.7290   C.ar      1 RES1   0.0000
    57 C27     19.9163   3.1957  -0.9435   C.2       1 RES1   0.0000
    58 H18     20.8097   3.0090  -0.6766   H         1 RES1   0.0000
    59 C28     19.2319   2.6226  -1.9635   C.2       1 RES1   0.0000
    60 H19     19.5557   1.9473  -2.5476   H         1 RES1   0.0000
    61 C29     17.9712   3.2020  -2.0023   C.2       1 RES1   0.0000
    62 H20     17.2953   2.9841  -2.6332   H         1 RES1   0.0000
    63 C30     21.3328   6.2007   3.5185   C.ar      1 RES1   0.0000
    64 C31     22.2443   5.1690   3.7444   C.ar      1 RES1   0.0000
    65 H21     22.1418   4.3385   3.2949   H         1 RES1   0.0000
    66 C32     23.3059   5.3523   4.6286   C.ar      1 RES1   0.0000
    67 H22     23.9360   4.6560   4.7678   H         1 RES1   0.0000
    68 C33     23.4383   6.5593   5.3063   C.ar      1 RES1   0.0000
    69 C34     22.5513   7.6076   5.0827   C.ar      1 RES1   0.0000
    70 H23     22.6605   8.4378   5.5311   H         1 RES1   0.0000
    71 C35     21.4968   7.4129   4.1860   C.ar      1 RES1   0.0000
    72 H24     20.8819   8.1203   4.0297   H         1 RES1   0.0000
    73 C36     24.4938   6.7277   6.2921   C.1       1 RES1   0.0000
    74 B1      20.2246   1.6241   2.4507   B         2 RES2  -1.0000
    75 F1      20.1193   0.2718   2.3879   F         2 RES2   0.0000
    76 F2      20.5328   2.0009   3.7045   F         2 RES2   0.0000
    77 F3      21.2310   2.0623   1.5916   F         2 RES2   0.0000
    78 F4      19.0419   2.2102   2.0856   F         2 RES2   0.0000
    79 B2      20.6303   9.1226  -0.5077   B         3 RES3  -1.0000
    80 F5      20.6550   7.7689  -0.3012   F         3 RES3   0.0000
    81 F6      21.8352   9.6869  -0.1677   F         3 RES3   0.0000
    82 F7      19.5986   9.6353   0.2556   F         3 RES3   0.0000
    83 F8      20.3085   9.3403  -1.8289   F         3 RES3   0.0000
    84 N13     15.5595  -1.5514   0.0810   N.1       4 RES4   0.0000
    85 C37     16.3162  -0.7020  -0.0262   C.1       4 RES4   0.0000
    86 C38     17.2563   0.3635  -0.2248   C.3       4 RES4   0.0000
    87 H25     17.8647   0.1301  -0.9549   H         4 RES4   0.0000
    88 H26     17.7692   0.5031   0.5978   H         4 RES4   0.0000
    89 H27     16.7745   1.1860  -0.4518   H         4 RES4   0.0000
    90 N14     13.2016   8.5373  -1.6988   N.1       5 RES5   0.0000
    91 C39     12.4995   9.3043  -1.2230   C.1       5 RES5   0.0000
    92 C40     11.5965  10.2111  -0.6469   C.3       5 RES5   0.0000
    93 H28     10.8300  10.3335  -1.2447   H         5 RES5   0.0000
    94 H29     12.0431  11.0738  -0.5077   H         5 RES5   0.0000
    95 H30     11.2883   9.8610   0.2145   H         5 RES5   0.0000
@<TRIPOS>BOND
     1     1     2    1
     2     2     3    1
     3     3    18    1
     4     4     1    1
     5     5     6    1
     6     6     1    1
     7     7    43    3
     8     8     1    1
     9     9     8    1
    10    10     1    1
    11    11    12    1
    12    12     1    1
    13    13    73    3
    14    14     2    2
    15    15    14    1
    16    16    14    1
    17    17    16    1
    18    18    16    2
    19    19    18    1
    20    20     3    1
    21    21    20   ar
    22    22    21    1
    23    23    21   ar
    24    24    23   ar
    25    25    24    1
    26    26     4   ar
    27    27     5    1
    28    28    27    1
    29    29    27    2
    30    30    29    1
    31    31     6    2
    32    32    31    1
    33    33    23    1
    34    34    33   ar
    35    35    34    1
    36    36    34   ar
    37    37    36    1
    38    38    36   ar
    39    39    38   ar
    40    40    39    1
    41    41    33   ar
    42    42    41    1
    43    43    38    1
    44    44     8    2
    45    45    44    1
    46    46    44    1
    47    47    46    1
    48    48     9    1
    49    49    48    1
    50    50     9    1
    51    51    50   ar
    52    52    51    1
    53    53    51   ar
    54    54    53   ar
    55    55    54    1
    56    56    10   ar
    57    57    11    1
    58    58    57    1
    59    59    57    2
    60    60    59    1
    61    61    12    2
    62    62    61    1
    63    63    53    1
    64    64    63   ar
    65    65    64    1
    66    66    64   ar
    67    67    66    1
    68    68    66   ar
    69    69    68   ar
    70    70    69    1
    71    71    63   ar
    72    72    71    1
    73    73    68    1
    74     4    20   ar
    75     5    26    1
    76    10    50   ar
    77    11    56    1
    78    24    26   ar
    79    29    31    1
    80    39    41   ar
    81    46    48    2
    82    54    56   ar
    83    59    61    1
    84    69    71   ar
    85    74    75    1
    86    76    74    1
    87    77    74    1
    88    78    74    1
    89    79    80    1
    90    81    79    1
    91    82    79    1
    92    83    79    1
    93    84    85    3
    94    85    86    1
    95    86    87    1
    96    88    86    1
    97    89    86    1
    98    90    91    3
    99    91    92    1
   100    92    93    1
   101    94    92    1
   102    95    92    1
@<TRIPOS>SUBSTRUCTURE
     1 RES1        1 GROUP             0 ****  ****    0  
     2 RES2       74 GROUP             0 ****  ****    0  
     3 RES3       79 GROUP             0 ****  ****    0  
     4 RES4       84 GROUP             0 ****  ****    0  
     5 RES5       90 GROUP             0 ****  ****    0  
@<TRIPOS>CRYSIN
   19.5030   19.1290   11.4090   90.0000   90.0000   90.0000    33     1
