@<TRIPOS>MOLECULE
YILFUX
    83    89     4     0     0
SMALL
USER_CHARGES
****
Generated from the CSD

@<TRIPOS>ATOM
     1 C1       3.6237   7.5005   2.5342   C.2       1 RES1   0.0000
     2 H1       3.5919   8.1992   3.1477   H         1 RES1   0.0000
     3 C2       2.8441   7.4282   1.3720   C.2       1 RES1   0.0000
     4 H2       2.2190   8.0529   1.0820   H         1 RES1   0.0000
     5 C3       3.1817   6.2776   0.7598   C.2       1 RES1   0.0000
     6 H3       2.8290   5.9539  -0.0379   H         1 RES1   0.0000
     7 C4       4.8408   4.4862   1.4003   C.ar      1 RES1   0.0000
     8 C5       4.7377   3.5501   0.3842   C.ar      1 RES1   0.0000
     9 H4       4.1580   3.6737  -0.3324   H         1 RES1   0.0000
    10 C6       5.5384   2.4213   0.4841   C.ar      1 RES1   0.0000
    11 C7       6.4103   2.2481   1.5411   C.ar      1 RES1   0.0000
    12 H5       6.9537   1.4961   1.6018   H         1 RES1   0.0000
    13 C8       6.4450   3.2308   2.4977   C.ar      1 RES1   0.0000
    14 C9       8.1873   2.4139   4.1338   C.2       1 RES1   0.0000
    15 H6       8.4643   1.6141   3.7501   H         1 RES1   0.0000
    16 C10      8.6520   2.9595   5.2849   C.2       1 RES1   0.0000
    17 H7       9.3074   2.6122   5.8448   H         1 RES1   0.0000
    18 C11      7.9421   4.1501   5.4605   C.2       1 RES1   0.0000
    19 H8       8.0587   4.7308   6.1772   H         1 RES1   0.0000
    20 C12      5.4476   1.3269  -0.5517   C.2       1 RES1   0.0000
    21 C13      3.4829   3.9718   5.1695   C.2       1 RES1   0.0000
    22 H9       3.3421   3.2959   4.5465   H         1 RES1   0.0000
    23 C14      2.7745   4.0966   6.3693   C.2       1 RES1   0.0000
    24 H10      2.1025   3.5361   6.6859   H         1 RES1   0.0000
    25 C15      3.2695   5.2039   6.9770   C.2       1 RES1   0.0000
    26 H11      2.9955   5.5564   7.7924   H         1 RES1   0.0000
    27 C16      5.1361   6.7760   6.3013   C.ar      1 RES1   0.0000
    28 C17      5.2569   7.6027   7.3866   C.ar      1 RES1   0.0000
    29 H12      4.7105   7.5112   8.1337   H         1 RES1   0.0000
    30 C18      6.2408   8.5873   7.3163   C.ar      1 RES1   0.0000
    31 C19      7.0476   8.7164   6.2000   C.ar      1 RES1   0.0000
    32 H13      7.7090   9.3677   6.1505   H         1 RES1   0.0000
    33 C20      6.8281   7.8380   5.1689   C.ar      1 RES1   0.0000
    34 C21      8.5188   8.5371   3.4221   C.2       1 RES1   0.0000
    35 H14      8.9139   9.2847   3.8103   H         1 RES1   0.0000
    36 C22      8.8291   8.0002   2.2235   C.2       1 RES1   0.0000
    37 H15      9.4754   8.3019   1.6285   H         1 RES1   0.0000
    38 C23      7.9860   6.9040   2.0582   C.2       1 RES1   0.0000
    39 H16      7.9860   6.3471   1.3117   H         1 RES1   0.0000
    40 C24      6.4784   9.5488   8.4373   C.2       1 RES1   0.0000
    41 N1       4.4046   6.4480   2.6429   N.2       1 RES1   0.0000
    42 N2       4.1329   5.6742   1.5250   N.pl3     1 RES1   0.0000
    43 N3       5.6730   4.3178   2.4332   N.ar      1 RES1   0.0000
    44 N4       7.2433   3.2559   3.6470   N.pl3     1 RES1   0.0000
    45 N5       7.0837   4.3451   4.4766   N.2       1 RES1   0.0000
    46 N6       4.3773   4.9361   5.0312   N.2       1 RES1   0.0000
    47 N7       4.2438   5.7010   6.1683   N.pl3     1 RES1   0.0000
    48 N8       5.8931   6.8859   5.2200   N.ar      1 RES1   0.0000
    49 N9       7.5268   7.7855   3.9528   N.pl3     1 RES1   0.0000
    50 N10      7.1853   6.7575   3.1011   N.2       1 RES1   0.0000
    51 O1       5.8330   0.1994  -0.3424   O.2       1 RES1   0.0000
    52 O2       4.9224   1.7429  -1.6624   O.3       1 RES1   0.0000
    53 H17      4.8876   1.1226  -2.1974   H         1 RES1   0.0000
    54 O3       7.3117  10.4017   8.3771   O.2       1 RES1   0.0000
    55 O4       5.6795   9.3623   9.4604   O.3       1 RES1   0.0000
    56 H18      5.8518   9.9116  10.0455   H         1 RES1   0.0000
    57 Fe1      5.7572   5.6217   3.8121   Fe        1 RES1   2.0000
    58 C25      6.7902   4.0341   9.2446   C.3       2 RES2   0.0000
    59 O5       7.9679   6.0874   8.2941   O.2       2 RES2   0.0000
    60 O6       9.1924   4.7470   9.8662   O.3       2 RES2  -1.0000
    61 O7       7.3488   6.0837  10.6407   O.2       2 RES2   0.0000
    62 F1       7.2216   3.2358   8.2767   F         2 RES2   0.0000
    63 F2       6.6101   3.2817  10.2829   F         2 RES2   0.0000
    64 F3       5.6049   4.5028   8.8953   F         2 RES2   0.0000
    65 S1       7.9576   5.4020   9.5487   S.o2      2 RES2   0.0000
    66 C26      5.1298  11.7004   4.7138   C.3       3 RES3   0.0000
    67 O8       3.8533   9.5813   5.3690   O.2       3 RES3   0.0000
    68 O9       3.1544  10.7182   3.3954   O.3       3 RES3  -1.0000
    69 O10      2.6913  11.7113   5.5133   O.2       3 RES3   0.0000
    70 F4       6.0319  10.9698   4.1181   F         3 RES3   0.0000
    71 F5       5.5657  11.9406   5.9229   F         3 RES3   0.0000
    72 F6       5.0223  12.8492   4.0862   F         3 RES3   0.0000
    73 S2       3.5318  10.8398   4.7765   S.o2      3 RES3   0.0000
    74 C27      9.6011   0.8496  11.2881   C.3       4 RES4   0.0000
    75 H19      9.8387   0.2403  11.9908   H         4 RES4   0.0000
    76 H20      8.6460   0.9370  11.2502   H         4 RES4   0.0000
    77 H21      9.9931   1.7080  11.4621   H         4 RES4   0.0000
    78 C28     10.0446   0.3910  10.1437   C.2       4 RES4   0.0000
    79 C29      9.7646   1.1663   8.9011   C.3       4 RES4   0.0000
    80 H22     10.1369   0.7055   8.1448   H         4 RES4   0.0000
    81 H23     10.1596   2.0378   8.9702   H         4 RES4   0.0000
    82 H24      8.8155   1.2537   8.7851   H         4 RES4   0.0000
    83 O11     10.5880  -0.6116  10.1883   O.2       4 RES4   0.0000
@<TRIPOS>BOND
     1     1     2    1
     2     3     1    1
     3     4     3    1
     4     5     3    2
     5     6     5    1
     6     7     8   ar
     7     8     9    1
     8    10     8   ar
     9    11    10   ar
    10    12    11    1
    11    13    11   ar
    12    14    15    1
    13    16    14    2
    14    17    16    1
    15    18    16    1
    16    19    18    1
    17    20    10    1
    18    21    22    1
    19    23    21    1
    20    24    23    1
    21    25    23    2
    22    26    25    1
    23    27    28   ar
    24    28    29    1
    25    30    28   ar
    26    31    30   ar
    27    32    31    1
    28    33    31   ar
    29    34    35    1
    30    36    34    2
    31    37    36    1
    32    38    36    1
    33    39    38    1
    34    40    30    1
    35    41     1    2
    36    42     5    1
    37    43     7   ar
    38    44    13    1
    39    45    18    2
    40    46    21    2
    41    47    25    1
    42    48    27   ar
    43    49    33    1
    44    50    38    2
    45    51    20    2
    46    52    20    1
    47    53    52    1
    48    54    40    2
    49    55    40    1
    50    56    55    1
    51    57    41    1
    52     7    42    1
    53    13    43   ar
    54    14    44    1
    55    27    47    1
    56    33    48   ar
    57    34    49    1
    58    41    42    1
    59    43    57    1
    60    44    45    1
    61    45    57    1
    62    46    47    1
    63    46    57    1
    64    48    57    1
    65    49    50    1
    66    50    57    1
    67    58    62    1
    68    59    65    2
    69    60    65    1
    70    61    65    2
    71    63    58    1
    72    64    58    1
    73    65    58    1
    74    66    70    1
    75    67    73    2
    76    68    73    1
    77    69    73    2
    78    71    66    1
    79    72    66    1
    80    73    66    1
    81    74    75    1
    82    76    74    1
    83    77    74    1
    84    78    74    1
    85    79    78    1
    86    80    79    1
    87    81    79    1
    88    82    79    1
    89    83    78    2
@<TRIPOS>SUBSTRUCTURE
     1 RES1        1 GROUP             0 ****  ****    0  
     2 RES2       58 GROUP             0 ****  ****    0  
     3 RES3       66 GROUP             0 ****  ****    0  
     4 RES4       74 GROUP             0 ****  ****    0  
@<TRIPOS>CRYSIN
   15.1365   21.8413   22.3085   90.0000   90.0000   90.0000    61     3
