@<TRIPOS>MOLECULE
YILGEI
    83    89     4     0     0
SMALL
USER_CHARGES
****
Generated from the CSD

@<TRIPOS>ATOM
     1 C1       7.8536   4.1684   5.4435   C.2       1 RES1   0.0000
     2 H1       7.9684   4.7682   6.1718   H         1 RES1   0.0000
     3 C2       8.5614   2.9709   5.2808   C.2       1 RES1   0.0000
     4 H2       9.2229   2.6145   5.8624   H         1 RES1   0.0000
     5 C3       8.1099   2.4174   4.1186   C.2       1 RES1   0.0000
     6 H3       8.3960   1.5974   3.7347   H         1 RES1   0.0000
     7 C4       6.3711   3.2219   2.4707   C.ar      1 RES1   0.0000
     8 C5       6.3413   2.2289   1.5106   C.ar      1 RES1   0.0000
     9 H4       6.9030   1.4648   1.5691   H         1 RES1   0.0000
    10 C6       5.4548   2.3984   0.4580   C.ar      1 RES1   0.0000
    11 C7       4.6547   3.5312   0.3586   C.ar      1 RES1   0.0000
    12 H5       4.0631   3.6555  -0.3739   H         1 RES1   0.0000
    13 C8       4.7545   4.4646   1.3643   C.ar      1 RES1   0.0000
    14 C9       3.1066   6.2658   0.7089   C.2       1 RES1   0.0000
    15 H6       2.7564   5.9309  -0.1091   H         1 RES1   0.0000
    16 C10      2.7639   7.4320   1.3105   C.2       1 RES1   0.0000
    17 H7       2.1307   8.0716   1.0060   H         1 RES1   0.0000
    18 C11      3.5461   7.4963   2.4856   C.2       1 RES1   0.0000
    19 H8       3.5193   8.2129   3.1092   H         1 RES1   0.0000
    20 C12      5.3684   1.3064  -0.5662   C.2       1 RES1   0.0000
    21 C13      3.4240   3.9245   5.1297   C.2       1 RES1   0.0000
    22 H9       3.2884   3.2339   4.4914   H         1 RES1   0.0000
    23 C14      2.7207   4.0338   6.3382   C.2       1 RES1   0.0000
    24 H10      2.0368   3.4555   6.6569   H         1 RES1   0.0000
    25 C15      3.2183   5.1400   6.9587   C.2       1 RES1   0.0000
    26 H11      2.9501   5.4810   7.8032   H         1 RES1   0.0000
    27 C16      5.0510   6.7381   6.2757   C.ar      1 RES1   0.0000
    28 C17      5.1836   7.5650   7.3752   C.ar      1 RES1   0.0000
    29 H12      4.6383   7.4609   8.1459   H         1 RES1   0.0000
    30 C18      6.1551   8.5586   7.2948   C.ar      1 RES1   0.0000
    31 C19      6.9462   8.7123   6.1631   C.ar      1 RES1   0.0000
    32 H13      7.6093   9.3908   6.1072   H         1 RES1   0.0000
    33 C20      6.7227   7.8391   5.1310   C.ar      1 RES1   0.0000
    34 C21      8.3975   8.5597   3.3665   C.2       1 RES1   0.0000
    35 H14      8.7893   9.3299   3.7591   H         1 RES1   0.0000
    36 C22      8.7163   8.0175   2.1620   C.2       1 RES1   0.0000
    37 H15      9.3660   8.3346   1.5468   H         1 RES1   0.0000
    38 C23      7.8879   6.8941   2.0120   C.2       1 RES1   0.0000
    39 H16      7.8983   6.3134   1.2597   H         1 RES1   0.0000
    40 C24      6.3994   9.5284   8.4163   C.2       1 RES1   0.0000
    41 N1       7.0045   4.3524   4.4469   N.2       1 RES1   0.0000
    42 N2       7.1718   3.2608   3.6140   N.pl3     1 RES1   0.0000
    43 N3       5.5935   4.3092   2.4037   N.ar      1 RES1   0.0000
    44 N4       4.0412   5.6660   1.4872   N.pl3     1 RES1   0.0000
    45 N5       4.3215   6.4325   2.6034   N.2       1 RES1   0.0000
    46 N6       4.2996   4.9027   4.9942   N.2       1 RES1   0.0000
    47 N7       4.1734   5.6636   6.1402   N.pl3     1 RES1   0.0000
    48 N8       5.8045   6.8722   5.1787   N.ar      1 RES1   0.0000
    49 N9       7.4151   7.7939   3.9049   N.pl3     1 RES1   0.0000
    50 N10      7.0934   6.7533   3.0587   N.2       1 RES1   0.0000
    51 O1       5.7672   0.1760  -0.3603   O.2       1 RES1   0.0000
    52 O2       4.8382   1.7171  -1.6917   O.3       1 RES1   0.0000
    53 H17      4.8066   1.0780  -2.2368   H         1 RES1   0.0000
    54 O3       7.2343  10.3846   8.3529   O.2       1 RES1   0.0000
    55 O4       5.5756   9.3336   9.4421   O.3       1 RES1   0.0000
    56 H18      5.7438   9.8928  10.0466   H         1 RES1   0.0000
    57 Fe1      5.6705   5.6114   3.7734   Fe        1 RES1   2.0000
    58 C25      6.7272   4.0017   9.1958   C.3       2 RES2   0.0000
    59 O5       9.1296   4.7073   9.8023   O.3       2 RES2  -1.0000
    60 O6       7.8478   6.0911   8.2681   O.2       2 RES2   0.0000
    61 O7       7.2666   6.0385  10.6360   O.2       2 RES2   0.0000
    62 F1       6.5924   3.1897  10.2489   F         2 RES2   0.0000
    63 F2       7.1371   3.2415   8.1766   F         2 RES2   0.0000
    64 F3       5.5041   4.4524   8.8975   F         2 RES2   0.0000
    65 S1       7.8796   5.3702   9.5149   S.o2      2 RES2   0.0000
    66 C26      5.0808  11.6786   4.7073   C.3       3 RES3   0.0000
    67 O8       3.1349  10.6304   3.3857   O.3       3 RES3  -1.0000
    68 O9       3.8358   9.5379   5.4046   O.2       3 RES3   0.0000
    69 O10      2.6401  11.6593   5.5152   O.2       3 RES3   0.0000
    70 F4       6.0113  10.9543   4.0745   F         3 RES3   0.0000
    71 F5       5.5337  11.9405   5.9187   F         3 RES3   0.0000
    72 F6       4.9428  12.8163   4.0445   F         3 RES3   0.0000
    73 S2       3.4968  10.7782   4.7787   S.o2      3 RES3   0.0000
    74 C27      9.5984   1.1888   8.8782   C.3       4 RES4   0.0000
    75 H19     10.0141   0.6976   8.1392   H         4 RES4   0.0000
    76 H20      9.9724   2.0929   8.9204   H         4 RES4   0.0000
    77 H21      8.6314   1.2431   8.7313   H         4 RES4   0.0000
    78 C28      9.8681   0.4738  10.1668   C.2       4 RES4   0.0000
    79 C29      9.3049   1.0866  11.4043   C.3       4 RES4   0.0000
    80 H22      9.5328   0.5303  12.1766   H         4 RES4   0.0000
    81 H23      8.3289   1.1475  11.3242   H         4 RES4   0.0000
    82 H24      9.6788   1.9842  11.5245   H         4 RES4   0.0000
    83 O11     10.4790  -0.5488  10.1920   O.2       4 RES4   0.0000
@<TRIPOS>BOND
     1     1     2    1
     2     3     1    1
     3     4     3    1
     4     5     3    2
     5     6     5    1
     6     7     8   ar
     7     8     9    1
     8    10     8   ar
     9    11    10   ar
    10    12    11    1
    11    13    11   ar
    12    14    15    1
    13    16    14    2
    14    17    16    1
    15    18    16    1
    16    19    18    1
    17    20    10    1
    18    21    22    1
    19    23    21    1
    20    24    23    1
    21    25    23    2
    22    26    25    1
    23    27    28   ar
    24    28    29    1
    25    30    28   ar
    26    31    30   ar
    27    32    31    1
    28    33    31   ar
    29    34    35    1
    30    36    34    2
    31    37    36    1
    32    38    36    1
    33    39    38    1
    34    40    30    1
    35    41     1    2
    36    42     5    1
    37    43     7   ar
    38    44    13    1
    39    45    18    2
    40    46    21    2
    41    47    25    1
    42    48    27   ar
    43    49    33    1
    44    50    38    2
    45    51    20    2
    46    52    20    1
    47    53    52    1
    48    54    40    2
    49    55    40    1
    50    56    55    1
    51    57    41    1
    52     7    42    1
    53    13    43   ar
    54    14    44    1
    55    27    47    1
    56    33    48   ar
    57    34    49    1
    58    41    42    1
    59    43    57    1
    60    44    45    1
    61    45    57    1
    62    46    47    1
    63    46    57    1
    64    48    57    1
    65    49    50    1
    66    50    57    1
    67    58    62    1
    68    59    65    1
    69    60    65    2
    70    61    65    2
    71    63    58    1
    72    64    58    1
    73    65    58    1
    74    66    70    1
    75    67    73    1
    76    68    73    2
    77    69    73    2
    78    71    66    1
    79    72    66    1
    80    73    66    1
    81    74    75    1
    82    76    74    1
    83    77    74    1
    84    78    74    1
    85    79    78    1
    86    80    79    1
    87    81    79    1
    88    82    79    1
    89    83    78    2
@<TRIPOS>SUBSTRUCTURE
     1 RES1        1 GROUP             0 ****  ****    0  
     2 RES2       58 GROUP             0 ****  ****    0  
     3 RES3       66 GROUP             0 ****  ****    0  
     4 RES4       74 GROUP             0 ****  ****    0  
@<TRIPOS>CRYSIN
   14.8997   21.7329   22.2566   90.0000   90.0000   90.0000    61     3
