@<TRIPOS>MOLECULE
YIMYEZ
    81    88     3     0     0
SMALL
USER_CHARGES
****
Generated from the CSD

@<TRIPOS>ATOM
     1 Fe1      0.2663   6.4450   4.3920   Fe        1 RES1   2.0000
     2 N1       1.4723   6.4991   2.8400   N.ar      1 RES1   0.0000
     3 N2       1.8438   5.3260   2.2897   N.ar      1 RES1   0.0000
     4 N3      -0.7887   5.0988   3.4072   N.ar      1 RES1   0.0000
     5 N4      -0.1134   4.0946   2.7851   N.ar      1 RES1   0.0000
     6 N5       1.3919   4.9728   5.1062   N.ar      1 RES1   0.0000
     7 N6       1.7518   3.9820   4.2338   N.ar      1 RES1   0.0000
     8 N7      -0.8453   7.9414   3.7334   N.ar      1 RES1   0.0000
     9 N8      -1.2249   8.8872   4.6750   N.ar      1 RES1   0.0000
    10 N9       1.3550   7.7930   5.3768   N.ar      1 RES1   0.0000
    11 N10      0.6744   8.7491   6.0700   N.ar      1 RES1   0.0000
    12 N11     -0.9380   6.3240   5.9666   N.ar      1 RES1   0.0000
    13 N12     -1.2701   7.5043   6.6052   N.ar      1 RES1   0.0000
    14 C1       2.0803   7.4449   2.1325   C.ar      1 RES1   0.0000
    15 H1       1.9922   8.3785   2.2848   H         1 RES1   0.0000
    16 C2       2.8727   6.8635   1.1283   C.ar      1 RES1   0.0000
    17 H2       3.4163   7.3190   0.4965   H         1 RES1   0.0000
    18 C3       2.7055   5.5225   1.2449   C.ar      1 RES1   0.0000
    19 H3       3.1073   4.8510   0.7052   H         1 RES1   0.0000
    20 C4      -2.0653   4.8602   3.1537   C.ar      1 RES1   0.0000
    21 H4      -2.7856   5.3925   3.4715   H         1 RES1   0.0000
    22 C5      -2.2149   3.7158   2.3563   C.ar      1 RES1   0.0000
    23 H5      -3.0235   3.3442   2.0235   H         1 RES1   0.0000
    24 C6      -0.9482   3.2542   2.1626   C.ar      1 RES1   0.0000
    25 H6      -0.7024   2.4772   1.6756   H         1 RES1   0.0000
    26 C7       1.9447   4.6688   6.2641   C.ar      1 RES1   0.0000
    27 H7       1.8514   5.1786   7.0595   H         1 RES1   0.0000
    28 C8       2.6826   3.4978   6.1531   C.ar      1 RES1   0.0000
    29 H8       3.1829   3.0750   6.8414   H         1 RES1   0.0000
    30 C9       2.5471   3.0719   4.8593   C.ar      1 RES1   0.0000
    31 H9       2.9328   2.2940   4.4738   H         1 RES1   0.0000
    32 C10      1.3351   4.0925   2.8584   C.3       1 RES1   0.0000
    33 H10      1.6921   3.3156   2.3394   H         1 RES1   0.0000
    34 C11     -1.2161   7.6589   1.2825   C.3       1 RES1   0.0000
    35 H11     -0.6653   6.8584   1.4142   H         1 RES1   0.0000
    36 H12     -0.7846   8.2475   0.6281   H         1 RES1   0.0000
    37 H13     -2.1001   7.3958   0.9516   H         1 RES1   0.0000
    38 C12     -1.3631   8.3805   2.5782   C.ar      1 RES1   0.0000
    39 C13     -2.0450   9.5936   2.7851   C.ar      1 RES1   0.0000
    40 H14     -2.4975  10.1054   2.1250   H         1 RES1   0.0000
    41 C14     -1.9364   9.8986   4.1108   C.ar      1 RES1   0.0000
    42 C15     -2.4457  11.0737   4.8894   C.3       1 RES1   0.0000
    43 H15     -3.1454  10.7769   5.5081   H         1 RES1   0.0000
    44 H16     -2.8170  11.7381   4.2707   H         1 RES1   0.0000
    45 H17     -1.7087  11.4730   5.3953   H         1 RES1   0.0000
    46 C16      3.7396   7.2423   4.9985   C.3       1 RES1   0.0000
    47 H18      3.3658   6.4152   4.6280   H         1 RES1   0.0000
    48 H19      4.4004   7.0222   5.6867   H         1 RES1   0.0000
    49 H20      4.1716   7.7541   4.2820   H         1 RES1   0.0000
    50 C17      2.6520   8.0520   5.5965   C.ar      1 RES1   0.0000
    51 C18      2.7542   9.1780   6.4389   C.ar      1 RES1   0.0000
    52 H21      3.5623   9.5639   6.7549   H         1 RES1   0.0000
    53 C19      1.5107   9.6140   6.7173   C.ar      1 RES1   0.0000
    54 C20      1.0056  10.7380   7.5391   C.3       1 RES1   0.0000
    55 H22      1.7454  11.1259   8.0524   H         1 RES1   0.0000
    56 H23      0.3177  10.4094   8.1540   H         1 RES1   0.0000
    57 H24      0.6205  11.4228   6.9542   H         1 RES1   0.0000
    58 C21     -1.4501   3.9103   6.3242   C.3       1 RES1   0.0000
    59 H25     -0.7490   3.7813   5.6529   H         1 RES1   0.0000
    60 H26     -2.3069   3.5940   5.9688   H         1 RES1   0.0000
    61 H27     -1.2252   3.4036   7.1329   H         1 RES1   0.0000
    62 C22     -1.5566   5.3659   6.6627   C.ar      1 RES1   0.0000
    63 C23     -2.2708   5.9166   7.7271   C.ar      1 RES1   0.0000
    64 H28     -2.8043   5.4447   8.3552   H         1 RES1   0.0000
    65 C24     -2.0529   7.2771   7.6895   C.ar      1 RES1   0.0000
    66 C25     -2.4773   8.3427   8.6392   C.3       1 RES1   0.0000
    67 H29     -1.7943   8.4522   9.3350   H         1 RES1   0.0000
    68 H30     -3.3283   8.0909   9.0548   H         1 RES1   0.0000
    69 H31     -2.5875   9.1872   8.1540   H         1 RES1   0.0000
    70 C26     -0.7692   8.7337   6.0422   C.3       1 RES1   0.0000
    71 H32     -1.1115   9.5004   6.5837   H         1 RES1   0.0000
    72 F1       4.0082   1.1158   9.4553   F         2 RES2   0.0000
    73 F2       5.8437   1.6460  10.0891   F         2 RES2   0.0000
    74 F3       4.7295   3.1272   8.8987   F         2 RES2   0.0000
    75 F4       5.7223   1.2990   8.0092   F         2 RES2   0.0000
    76 B1       5.1082   1.8313   9.0792   B         2 RES2  -1.0000
    77 F5       2.9098   0.3859   2.9855   F         3 RES3   0.0000
    78 F6       1.2911   0.9796   1.5336   F         3 RES3   0.0000
    79 F7       3.2463   2.1015   1.5140   F         3 RES3   0.0000
    80 F8       3.1689  -0.0583   0.7695   F         3 RES3   0.0000
    81 B2       2.6488   0.8169   1.6962   B         3 RES3  -1.0000
@<TRIPOS>BOND
     1     1     2    1
     2     2     3   ar
     3     3    18   ar
     4     4     1    1
     5     5     4   ar
     6     6     1    1
     7     7     6   ar
     8     8     1    1
     9     9     8   ar
    10    10     1    1
    11    11    10   ar
    12    12     1    1
    13    13    12   ar
    14    14     2   ar
    15    15    14    1
    16    16    14   ar
    17    17    16    1
    18    18    16   ar
    19    19    18    1
    20    20     4   ar
    21    21    20    1
    22    22    20   ar
    23    23    22    1
    24    24     5   ar
    25    25    24    1
    26    26     6   ar
    27    27    26    1
    28    28    26   ar
    29    29    28    1
    30    30     7   ar
    31    31    30    1
    32    32     3    1
    33    33    32    1
    34    34    35    1
    35    36    34    1
    36    37    34    1
    37    38     8   ar
    38    39    38   ar
    39    40    39    1
    40    41     9   ar
    41    42    41    1
    42    43    42    1
    43    44    42    1
    44    45    42    1
    45    46    47    1
    46    48    46    1
    47    49    46    1
    48    50    10   ar
    49    51    50   ar
    50    52    51    1
    51    53    11   ar
    52    54    53    1
    53    55    54    1
    54    56    54    1
    55    57    54    1
    56    58    59    1
    57    60    58    1
    58    61    58    1
    59    62    12   ar
    60    63    62   ar
    61    64    63    1
    62    65    13   ar
    63    66    65    1
    64    67    66    1
    65    68    66    1
    66    69    66    1
    67    70     9    1
    68    71    70    1
    69     5    32    1
    70     7    32    1
    71    11    70    1
    72    13    70    1
    73    22    24   ar
    74    28    30   ar
    75    34    38    1
    76    39    41   ar
    77    46    50    1
    78    51    53   ar
    79    58    62    1
    80    63    65   ar
    81    72    76    1
    82    73    76    1
    83    74    76    1
    84    75    76    1
    85    77    81    1
    86    78    81    1
    87    79    81    1
    88    80    81    1
@<TRIPOS>SUBSTRUCTURE
     1 RES1        1 GROUP             0 ****  ****    0  
     2 RES2       72 GROUP             0 ****  ****    0  
     3 RES3       77 GROUP             0 ****  ****    0  
@<TRIPOS>CRYSIN
    8.1814   10.2364   18.8554   90.0000   94.1760   90.0000     4     1
