@<TRIPOS>MOLECULE
YIMYEZ01
    81    88     3     0     0
SMALL
USER_CHARGES
****
Generated from the CSD

@<TRIPOS>ATOM
     1 Fe1     11.3177   8.3415  10.0877   Fe        1 RES1   2.0000
     2 N1      11.1839   8.5849   8.1194   N.ar      1 RES1   0.0000
     3 N2      12.3640   8.6444   7.4182   N.ar      1 RES1   0.0000
     4 N3      12.6685   6.9272   9.7605   N.ar      1 RES1   0.0000
     5 N4      13.6174   7.1763   8.7910   N.ar      1 RES1   0.0000
     6 N5      12.8007   9.6548  10.0956   N.ar      1 RES1   0.0000
     7 N6      13.7548   9.5249   9.1164   N.ar      1 RES1   0.0000
     8 N7      11.4635   8.1176  12.0280   N.ar      1 RES1   0.0000
     9 N8      10.3128   8.0994  12.7630   N.ar      1 RES1   0.0000
    10 N9       9.9946   9.7576  10.4366   N.ar      1 RES1   0.0000
    11 N10      9.0251   9.5230  11.3758   N.ar      1 RES1   0.0000
    12 N11      9.8366   7.0360  10.1399   N.ar      1 RES1   0.0000
    13 N12      8.8944   7.1825  11.1149   N.ar      1 RES1   0.0000
    14 C1       8.7838   8.8352   7.5408   C.3       1 RES1   0.0000
    15 H1       8.6739   8.7462   8.5111   H         1 RES1   0.0000
    16 H2       8.3350   8.0889   7.0914   H         1 RES1   0.0000
    17 H3       8.3892   9.6813   7.2432   H         1 RES1   0.0000
    18 C2      10.2298   8.8175   7.2036   C.ar      1 RES1   0.0000
    19 C3      10.8168   9.0267   5.9571   C.ar      1 RES1   0.0000
    20 H4      10.3529   9.2064   5.1480   H         1 RES1   0.0000
    21 C4      12.1614   8.9314   6.0965   C.ar      1 RES1   0.0000
    22 C5      13.2860   9.0786   5.1297   C.3       1 RES1   0.0000
    23 H5      12.9267   9.2526   4.2347   H         1 RES1   0.0000
    24 H6      13.8152   8.2530   5.1158   H         1 RES1   0.0000
    25 H7      13.8554   9.8277   5.4032   H         1 RES1   0.0000
    26 C6      12.2273   5.0383  11.3440   C.3       1 RES1   0.0000
    27 H8      11.4355   5.5703  11.5706   H         1 RES1   0.0000
    28 H9      12.7887   4.9317  12.1400   H         1 RES1   0.0000
    29 H10     11.9470   4.1569  11.0213   H         1 RES1   0.0000
    30 C7      13.0070   5.7351  10.2753   C.ar      1 RES1   0.0000
    31 C8      14.1597   5.2539   9.6399   C.ar      1 RES1   0.0000
    32 H11     14.6026   4.4342   9.8232   H         1 RES1   0.0000
    33 C9      14.5284   6.1818   8.7077   C.ar      1 RES1   0.0000
    34 C10     15.6338   6.1735   7.7039   C.3       1 RES1   0.0000
    35 H12     15.2806   6.4348   6.8268   H         1 RES1   0.0000
    36 H13     16.0159   5.2736   7.6461   H         1 RES1   0.0000
    37 H14     16.3282   6.8070   7.9779   H         1 RES1   0.0000
    38 C11     12.4891  11.1905  12.0459   C.3       1 RES1   0.0000
    39 H15     11.6899  10.6435  12.1991   H         1 RES1   0.0000
    40 H16     12.2218  12.1180  11.8768   H         1 RES1   0.0000
    41 H17     13.0650  11.1555  12.8371   H         1 RES1   0.0000
    42 C12     13.2335  10.6636  10.8649   C.ar      1 RES1   0.0000
    43 C13     14.4525  11.1511  10.3769   C.ar      1 RES1   0.0000
    44 H18     14.9653  11.8578  10.7500   H         1 RES1   0.0000
    45 C14     14.7657  10.4268   9.2711   C.ar      1 RES1   0.0000
    46 C15     15.9244  10.4957   8.3271   C.3       1 RES1   0.0000
    47 H19     16.5820  11.1397   8.6642   H         1 RES1   0.0000
    48 H20     15.6098  10.7799   7.4433   H         1 RES1   0.0000
    49 H21     16.3410   9.6106   8.2572   H         1 RES1   0.0000
    50 C16     13.5970   8.4725   8.1467   C.3       1 RES1   0.0000
    51 H22     14.3580   8.5179   7.4997   H         1 RES1   0.0000
    52 C17     12.4437   8.0185  12.9231   C.ar      1 RES1   0.0000
    53 H23     13.3688   7.9956  12.7082   H         1 RES1   0.0000
    54 C18     11.9322   7.9552  14.2115   C.ar      1 RES1   0.0000
    55 H24     12.4270   7.8862  15.0196   H         1 RES1   0.0000
    56 C19     10.5760   8.0108  14.0811   C.ar      1 RES1   0.0000
    57 H25      9.9377   7.9903  14.7846   H         1 RES1   0.0000
    58 C20      9.7776  11.0062  10.0322   C.ar      1 RES1   0.0000
    59 H26     10.2899  11.4536   9.3693   H         1 RES1   0.0000
    60 C21      8.7010  11.5702  10.7090   C.ar      1 RES1   0.0000
    61 H27      8.3545  12.4475  10.5995   H         1 RES1   0.0000
    62 C22      8.2413  10.6088  11.5609   C.ar      1 RES1   0.0000
    63 H28      7.5122  10.6866  12.1656   H         1 RES1   0.0000
    64 C23      9.4701   5.9490   9.4766   C.ar      1 RES1   0.0000
    65 H29      9.9395   5.5915   8.7327   H         1 RES1   0.0000
    66 C24      8.3050   5.3964  10.0115   C.ar      1 RES1   0.0000
    67 H30      7.8454   4.6211   9.7118   H         1 RES1   0.0000
    68 C25      7.9680   6.2065  11.0570   C.ar      1 RES1   0.0000
    69 H31      7.2211   6.1021  11.6351   H         1 RES1   0.0000
    70 C26      9.0544   8.2586  12.0673   C.3       1 RES1   0.0000
    71 H32      8.3047   8.2280  12.7297   H         1 RES1   0.0000
    72 F1      10.3850   2.2302   9.9444   F         2 RES2   0.0000
    73 F2       9.9359   3.0602   7.8945   F         2 RES2   0.0000
    74 F3       9.7876   0.8364   8.2654   F         2 RES2   0.0000
    75 F4       8.2493   2.2287   9.1799   F         2 RES2   0.0000
    76 B1       9.5890   2.0837   8.8321   B         2 RES2  -1.0000
    77 F5       7.2167   8.9134  14.4331   F         3 RES3   0.0000
    78 F6       5.9129   7.6193  13.1977   F         3 RES3   0.0000
    79 F7       5.2601   9.7147  13.6333   F         3 RES3   0.0000
    80 F8       5.2564   8.2140  15.2865   F         3 RES3   0.0000
    81 B2       5.8884   8.6160  14.1533   B         3 RES3  -1.0000
@<TRIPOS>BOND
     1     1     2    1
     2     2     3   ar
     3     3    21   ar
     4     4     1    1
     5     5     4   ar
     6     6     1    1
     7     7     6   ar
     8     8     1    1
     9     9     8   ar
    10    10     1    1
    11    11    10   ar
    12    12     1    1
    13    13    12   ar
    14    14    15    1
    15    16    14    1
    16    17    14    1
    17    18     2   ar
    18    19    18   ar
    19    20    19    1
    20    21    19   ar
    21    22    21    1
    22    23    22    1
    23    24    22    1
    24    25    22    1
    25    26    27    1
    26    28    26    1
    27    29    26    1
    28    30     4   ar
    29    31    30   ar
    30    32    31    1
    31    33     5   ar
    32    34    33    1
    33    35    34    1
    34    36    34    1
    35    37    34    1
    36    38    39    1
    37    40    38    1
    38    41    38    1
    39    42     6   ar
    40    43    42   ar
    41    44    43    1
    42    45     7   ar
    43    46    45    1
    44    47    46    1
    45    48    46    1
    46    49    46    1
    47    50     3    1
    48    51    50    1
    49    52     8   ar
    50    53    52    1
    51    54    52   ar
    52    55    54    1
    53    56     9   ar
    54    57    56    1
    55    58    10   ar
    56    59    58    1
    57    60    58   ar
    58    61    60    1
    59    62    11   ar
    60    63    62    1
    61    64    12   ar
    62    65    64    1
    63    66    64   ar
    64    67    66    1
    65    68    13   ar
    66    69    68    1
    67    70     9    1
    68    71    70    1
    69     5    50    1
    70     7    50    1
    71    11    70    1
    72    13    70    1
    73    14    18    1
    74    26    30    1
    75    31    33   ar
    76    38    42    1
    77    43    45   ar
    78    54    56   ar
    79    60    62   ar
    80    66    68   ar
    81    72    76    1
    82    73    76    1
    83    74    76    1
    84    75    76    1
    85    77    81    1
    86    78    81    1
    87    79    81    1
    88    80    81    1
@<TRIPOS>SUBSTRUCTURE
     1 RES1        1 GROUP             0 ****  ****    0  
     2 RES2       72 GROUP             0 ****  ****    0  
     3 RES3       77 GROUP             0 ****  ****    0  
@<TRIPOS>CRYSIN
   10.1222   12.0992   14.0078   89.4320   73.6740   79.7150     2     1
