@<TRIPOS>MOLECULE
YIMYOJ
    96   101     5     0     0
SMALL
USER_CHARGES
****
Generated from the CSD

@<TRIPOS>ATOM
     1 Fe1      7.7374  11.6328   4.3522   Fe        1 RES1   2.0000
     2 N1       7.6415  13.1829   5.5409   N.ar      1 RES1   0.0000
     3 N2       6.5680  10.7010   5.6005   N.ar      1 RES1   0.0000
     4 N3       7.7642  10.0518   3.1599   N.ar      1 RES1   0.0000
     5 N4       5.4983  11.3506   6.1244   N.ar      1 RES1   0.0000
     6 N5       5.1142  12.7745   4.2563   N.ar      1 RES1   0.0000
     7 N6       9.3868  10.9513   5.2224   N.ar      1 RES1   0.0000
     8 N7       8.9697   9.6979   2.6125   N.ar      1 RES1   0.0000
     9 O1       2.9316  12.4748   6.0885   O.3       1 RES1   0.0000
    10 N8       8.9163  12.5837   3.0608   N.ar      1 RES1   0.0000
    11 N9      10.3611  10.4751   4.3903   N.ar      1 RES1   0.0000
    12 C1       7.8815  14.9509   6.9041   C.ar      1 RES1   0.0000
    13 H1       8.2869  15.6623   7.3859   H         1 RES1   0.0000
    14 C2       6.5491   9.4796   6.1260   C.ar      1 RES1   0.0000
    15 H2       7.1806   8.7956   5.9346   H         1 RES1   0.0000
    16 C3       6.8713   9.2102   2.6318   C.ar      1 RES1   0.0000
    17 N10      9.9362  11.8513   2.5082   N.ar      1 RES1   0.0000
    18 N11      6.4381  13.5213   6.0790   N.ar      1 RES1   0.0000
    19 C4      10.6093  12.5570   1.5567   C.ar      1 RES1   0.0000
    20 N12      6.1384  12.3136   3.4904   N.ar      1 RES1   0.0000
    21 C5       4.8134  10.5520   6.9938   C.ar      1 RES1   0.0000
    22 H3       4.0400  10.7867   7.4936   H         1 RES1   0.0000
    23 C6       8.9782  13.7799   2.4560   C.ar      1 RES1   0.0000
    24 C7       6.5822  14.5970   6.9202   C.ar      1 RES1   0.0000
    25 H4       5.8919  15.0146   7.4218   H         1 RES1   0.0000
    26 C8      11.4820  10.1079   5.0737   C.ar      1 RES1   0.0000
    27 C9      11.2067  10.3451   6.3912   C.ar      1 RES1   0.0000
    28 H5      11.7860  10.1835   7.1268   H         1 RES1   0.0000
    29 C10      5.2625  12.7352   5.7106   C.3       1 RES1   0.0000
    30 C11      5.4631   9.3459   7.0058   C.ar      1 RES1   0.0000
    31 H6       5.2263   8.5749   7.5075   H         1 RES1   0.0000
    32 C12      8.8459   8.6678   1.7276   C.ar      1 RES1   0.0000
    33 C13      9.9916   8.1178   0.9710   C.3       1 RES1   0.0000
    34 H7      10.4098   8.8312   0.4446   H         1 RES1   0.0000
    35 H8       9.6769   7.4112   0.3708   H         1 RES1   0.0000
    36 H9      10.6488   7.7457   1.5968   H         1 RES1   0.0000
    37 C14     10.0130  13.7845   1.5097   C.ar      1 RES1   0.0000
    38 H10     10.2541  14.5074   0.9409   H         1 RES1   0.0000
    39 C15     12.6981   9.5755   4.4130   C.3       1 RES1   0.0000
    40 H11     12.4645   8.7796   3.8913   H         1 RES1   0.0000
    41 H12     13.3617   9.3383   5.0934   H         1 RES1   0.0000
    42 H13     13.0715  10.2582   3.8176   H         1 RES1   0.0000
    43 C16      4.5190  13.0999   2.1825   C.ar      1 RES1   0.0000
    44 H14      4.0368  13.3437   1.4014   H         1 RES1   0.0000
    45 C17      9.9063  10.8752   6.4518   C.ar      1 RES1   0.0000
    46 C18      5.7575  12.4974   2.2331   C.ar      1 RES1   0.0000
    47 H15      6.2685  12.2476   1.4712   H         1 RES1   0.0000
    48 C19      8.5173  14.0516   6.0293   C.ar      1 RES1   0.0000
    49 H16      9.4433  14.0644   5.8170   H         1 RES1   0.0000
    50 C20      7.5167   8.3441   1.7377   C.ar      1 RES1   0.0000
    51 H17      7.1049   7.6550   1.2300   H         1 RES1   0.0000
    52 C21     10.1186  10.4951   2.9510   C.3       1 RES1   0.0000
    53 H18     10.9198  10.1141   2.4879   H         1 RES1   0.0000
    54 C22      4.1210  13.2775   3.4812   C.ar      1 RES1   0.0000
    55 H19      3.3103  13.6747   3.7797   H         1 RES1   0.0000
    56 C23     11.7295  11.9684   0.7691   C.3       1 RES1   0.0000
    57 H20     12.3663  11.5394   1.3775   H         1 RES1   0.0000
    58 H21     12.1839  12.6764   0.2671   H         1 RES1   0.0000
    59 H22     11.3753  11.3027   0.1435   H         1 RES1   0.0000
    60 C24      5.4215   9.2011   2.9853   C.3       1 RES1   0.0000
    61 H23      5.2657   8.5589   3.7099   H         1 RES1   0.0000
    62 H24      4.8955   8.9415   2.2008   H         1 RES1   0.0000
    63 H25      5.1505  10.0963   3.2773   H         1 RES1   0.0000
    64 C25      9.1787  11.3148   7.6913   C.3       1 RES1   0.0000
    65 H26      9.3665  12.2618   7.8604   H         1 RES1   0.0000
    66 H27      9.4817  10.7796   8.4544   H         1 RES1   0.0000
    67 H28      8.2154  11.1889   7.5673   H         1 RES1   0.0000
    68 C26      4.0197  13.2955   6.4001   C.3       1 RES1   0.0000
    69 H29      4.1573  13.3170   7.3799   H         1 RES1   0.0000
    70 H30      3.8479  14.2192   6.0881   H         1 RES1   0.0000
    71 C31      8.0853  14.9343   2.8138   C.3       1 RES1   0.0000
    72 H37      7.2276  14.5929   3.1437   H         1 RES1   0.0000
    73 H38      7.9327  15.4879   2.0194   H         1 RES1   0.0000
    74 H39      8.5120  15.4737   3.5106   H         1 RES1   0.0000
    75 F1       2.5031   8.7792   1.1979   F         2 RES2   0.0000
    76 F2       3.8791  10.0492  -0.0504   F         2 RES2   0.0000
    77 F3       2.4622   8.6070  -1.0697   F         2 RES2   0.0000
    78 B1       3.2687   8.8151   0.0411   B         2 RES2  -1.0000
    79 F4       4.2373   7.8237   0.1212   F         2 RES2   0.0000
    80 F5       8.2922   7.0055   4.8480   F         3 RES3   0.0000
    81 F6       9.4102   5.7726   3.2969   F         3 RES3   0.0000
    82 F7       9.6492   5.3354   5.4233   F         3 RES3   0.0000
    83 F8      10.4728   7.3116   4.5512   F         3 RES3   0.0000
    84 B2       9.4817   6.4112   4.5671   B         3 RES3  -1.0000
    85 C27      2.1560  15.9214   0.9328   C.1       4 RES4   0.0000
    86 C28      1.3388  16.6801   1.8739   C.3       4 RES4   0.0000
    87 H31      0.5611  17.0502   1.4074   H         4 RES4   0.0000
    88 H32      1.8712  17.4114   2.2527   H         4 RES4   0.0000
    89 H33      1.0369  16.0893   2.5955   H         4 RES4   0.0000
    90 N13      2.7598  15.3105   0.2015   N.1       4 RES4   0.0000
    91 C29      4.6256   4.4236  -0.0478   C.1       5 RES5   0.0000
    92 N14      5.5975   4.0748   0.4386   N.1       5 RES5   0.0000
    93 C30      3.4116   4.8364  -0.6299   C.3       5 RES5   0.0000
    94 H34      2.8046   4.0695  -0.6957   H         5 RES5   0.0000
    95 H35      3.5844   5.1941  -1.5250   H         5 RES5   0.0000
    96 H36      3.0020   5.5304  -0.0738   H         5 RES5   0.0000
@<TRIPOS>BOND
     1     1     2    1
     2     2    18   ar
     3     3     1    1
     4     4     1    1
     5     5     3   ar
     6     6    20   ar
     7     7     1    1
     8     8     4   ar
     9     9    68    1
    10    10     1    1
    11    11     7   ar
    12    12    13    1
    13    14     3   ar
    14    15    14    1
    15    16     4   ar
    16    17    10   ar
    17    18    24   ar
    18    19    17   ar
    19    20     1    1
    20    21     5   ar
    21    22    21    1
    22    23    10   ar
    23    24    12   ar
    24    25    24    1
    25    26    11   ar
    26    27    26   ar
    27    28    27    1
    28    29     5    1
    29    30    14   ar
    30    31    30    1
    31    32     8   ar
    32    33    32    1
    33    34    33    1
    34    35    33    1
    35    36    33    1
    36    37    19   ar
    37    38    37    1
    38    39    26    1
    39    40    39    1
    40    41    39    1
    41    42    39    1
    42    43    44    1
    43    45     7   ar
    44    46    20   ar
    45    47    46    1
    46    48     2   ar
    47    49    48    1
    48    50    16   ar
    49    51    50    1
    50    52     8    1
    51    53    52    1
    52    54     6   ar
    53    55    54    1
    54    56    19    1
    55    57    56    1
    56    58    56    1
    57    59    56    1
    58    60    16    1
    59    61    60    1
    60    62    60    1
    61    63    60    1
    62    64    45    1
    63    65    64    1
    64    66    64    1
    65    67    64    1
    66    68    29    1
    67    69    68    1
    68    70    68    1
    69    71    23    1
    70    72    71    1
    71    73    71    1
    72    74    71    1
    73     6    29    1
    74    11    52    1
    75    12    48   ar
    76    17    52    1
    77    18    29    1
    78    21    30   ar
    79    23    37   ar
    80    27    45   ar
    81    32    50   ar
    82    43    46   ar
    83    43    54   ar
    84    75    78    1
    85    76    78    1
    86    77    78    1
    87    78    79    1
    88    80    84    1
    89    81    84    1
    90    82    84    1
    91    83    84    1
    92    85    86    1
    93    86    87    1
    94    88    86    1
    95    89    86    1
    96    90    85    3
    97    91    92    3
    98    93    91    1
    99    94    93    1
   100    95    93    1
   101    96    93    1
@<TRIPOS>SUBSTRUCTURE
     1 RES1        1 GROUP             0 ****  ****    0  
     2 RES2       75 GROUP             0 ****  ****    0  
     3 RES3       80 GROUP             0 ****  ****    0  
     4 RES4       85 GROUP             0 ****  ****    0  
     5 RES5       91 GROUP             0 ****  ****    0  
@<TRIPOS>CRYSIN
   10.6680   17.7940   19.9350   90.0000   90.0000   90.0000    19     1
