@<TRIPOS>MOLECULE
YIMYEZ02
    81    88     3     0     0
SMALL
USER_CHARGES
****
Generated from the CSD

@<TRIPOS>ATOM
     1 Fe1     10.2074   7.6238  10.1446   Fe        1 RES1   2.0000
     2 N1      10.1267   7.9462   8.0415   N.ar      1 RES1   0.0000
     3 N2      11.3256   8.2170   7.4224   N.ar      1 RES1   0.0000
     4 N3      11.8075   6.2857   9.6645   N.ar      1 RES1   0.0000
     5 N4      12.6668   6.6951   8.6749   N.ar      1 RES1   0.0000
     6 N5      11.7378   9.1222  10.1638   N.ar      1 RES1   0.0000
     7 N6      12.7000   9.0237   9.1941   N.ar      1 RES1   0.0000
     8 N7      10.3027   7.3057  12.2472   N.ar      1 RES1   0.0000
     9 N8       9.1254   7.3176  12.9378   N.ar      1 RES1   0.0000
    10 N9       8.6620   9.0254  10.6098   N.ar      1 RES1   0.0000
    11 N10      7.7503   8.6843  11.5610   N.ar      1 RES1   0.0000
    12 N11      8.6205   6.1445  10.2874   N.ar      1 RES1   0.0000
    13 N12      7.7119   6.3167  11.3021   N.ar      1 RES1   0.0000
    14 C1       7.7471   8.0747   7.4243   C.3       1 RES1   0.0000
    15 H1       7.6371   7.7385   8.3169   H         1 RES1   0.0000
    16 H2       7.3762   7.4487   6.7974   H         1 RES1   0.0000
    17 H3       7.2924   8.9159   7.3411   H         1 RES1   0.0000
    18 C2       9.1986   8.2629   7.1395   C.ar      1 RES1   0.0000
    19 C3       9.7914   8.7496   5.9784   C.ar      1 RES1   0.0000
    20 H4       9.3497   9.0368   5.2112   H         1 RES1   0.0000
    21 C4      11.1433   8.7281   6.1748   C.ar      1 RES1   0.0000
    22 C5      12.2754   9.1441   5.3025   C.3       1 RES1   0.0000
    23 H5      11.9409   9.3804   4.4344   H         1 RES1   0.0000
    24 H6      12.8992   8.4187   5.2193   H         1 RES1   0.0000
    25 H7      12.7169   9.9030   5.6909   H         1 RES1   0.0000
    26 C6      11.5961   4.3074  11.1378   C.3       1 RES1   0.0000
    27 H8      10.7801   4.7415  11.3967   H         1 RES1   0.0000
    28 H9      12.1715   4.2250  11.9023   H         1 RES1   0.0000
    29 H10     11.3982   3.4348  10.7903   H         1 RES1   0.0000
    30 C7      12.2806   5.1185  10.0857   C.ar      1 RES1   0.0000
    31 C8      13.4543   4.7967   9.3785   C.ar      1 RES1   0.0000
    32 H11     13.9799   4.0375   9.4957   H         1 RES1   0.0000
    33 C9      13.6744   5.8034   8.4954   C.ar      1 RES1   0.0000
    34 C10     14.7431   5.9593   7.4611   C.3       1 RES1   0.0000
    35 H12     14.3394   6.0593   6.5957   H         1 RES1   0.0000
    36 H13     15.3069   5.1830   7.4638   H         1 RES1   0.0000
    37 H14     15.2692   6.7378   7.6600   H         1 RES1   0.0000
    38 C11     11.3905  10.5217  12.1789   C.3       1 RES1   0.0000
    39 H15     10.5511  10.0570  12.2048   H         1 RES1   0.0000
    40 H16     11.2308  11.4667  12.1162   H         1 RES1   0.0000
    41 H17     11.8852  10.3334  12.9789   H         1 RES1   0.0000
    42 C12     12.1729  10.0691  10.9906   C.ar      1 RES1   0.0000
    43 C13     13.4072  10.5647  10.5600   C.ar      1 RES1   0.0000
    44 H18     13.9134  11.2273  10.9715   H         1 RES1   0.0000
    45 C14     13.7259   9.8841   9.4234   C.ar      1 RES1   0.0000
    46 C15     14.9155   9.9877   8.5349   C.3       1 RES1   0.0000
    47 H19     15.4750  10.7103   8.8320   H         1 RES1   0.0000
    48 H20     14.6292  10.1539   7.6341   H         1 RES1   0.0000
    49 H21     15.4108   9.1663   8.5663   H         1 RES1   0.0000
    50 C16     12.5537   8.0382   8.1528   C.3       1 RES1   0.0000
    51 H22     13.2912   8.1695   7.5210   H         1 RES1   0.0000
    52 C17     11.2366   7.2571  13.1860   C.ar      1 RES1   0.0000
    53 H23     12.1502   7.2292  13.0129   H         1 RES1   0.0000
    54 C18     10.6877   7.2531  14.4506   C.ar      1 RES1   0.0000
    55 H24     11.1439   7.2237  15.2615   H         1 RES1   0.0000
    56 C19      9.3374   7.2999  14.2653   C.ar      1 RES1   0.0000
    57 H25      8.6868   7.3181  14.9290   H         1 RES1   0.0000
    58 C20      8.3757  10.2828  10.2942   C.ar      1 RES1   0.0000
    59 H26      8.8334  10.7817   9.6565   H         1 RES1   0.0000
    60 C21      7.3042  10.7559  11.0397   C.ar      1 RES1   0.0000
    61 H27      6.9232  11.6032  11.0015   H         1 RES1   0.0000
    62 C22      6.9300   9.7205  11.8396   C.ar      1 RES1   0.0000
    63 H28      6.2378   9.7262  12.4610   H         1 RES1   0.0000
    64 C23      8.2415   4.9997   9.7205   C.ar      1 RES1   0.0000
    65 H29      8.6687   4.6155   8.9887   H         1 RES1   0.0000
    66 C24      7.1372   4.4517  10.3447   C.ar      1 RES1   0.0000
    67 H30      6.6992   3.6627  10.1198   H         1 RES1   0.0000
    68 C25      6.8266   5.3039  11.3572   C.ar      1 RES1   0.0000
    69 H31      6.1348   5.2058  11.9704   H         1 RES1   0.0000
    70 C26      7.8639   7.4176  12.2239   C.3       1 RES1   0.0000
    71 H32      7.1419   7.3581  12.8835   H         1 RES1   0.0000
    72 F1      10.2482   1.1848  10.0782   F         2 RES2   0.0000
    73 F2       9.8544   2.3741   8.2096   F         2 RES2   0.0000
    74 F3       9.5987   0.1539   8.2314   F         2 RES2   0.0000
    75 F4       8.1368   1.4337   9.3558   F         2 RES2   0.0000
    76 B1       9.4557   1.2753   8.9778   B         2 RES2  -1.0000
    77 F5       6.1015   7.7695  14.7750   F         3 RES3   0.0000
    78 F6       4.7313   6.6033  13.7393   F         3 RES3   0.0000
    79 F7       4.2168   8.5947  14.1236   F         3 RES3   0.0000
    80 F8       4.2270   7.3131  15.7834   F         3 RES3   0.0000
    81 B2       4.7928   7.4871  14.6319   B         3 RES3  -1.0000
@<TRIPOS>BOND
     1     1     2    1
     2     2     3   ar
     3     3    21   ar
     4     4     1    1
     5     5     4   ar
     6     6     1    1
     7     7     6   ar
     8     8     1    1
     9     9     8   ar
    10    10     1    1
    11    11    10   ar
    12    12     1    1
    13    13    12   ar
    14    14    15    1
    15    16    14    1
    16    17    14    1
    17    18     2   ar
    18    19    18   ar
    19    20    19    1
    20    21    19   ar
    21    22    21    1
    22    23    22    1
    23    24    22    1
    24    25    22    1
    25    26    27    1
    26    28    26    1
    27    29    26    1
    28    30     4   ar
    29    31    30   ar
    30    32    31    1
    31    33     5   ar
    32    34    33    1
    33    35    34    1
    34    36    34    1
    35    37    34    1
    36    38    39    1
    37    40    38    1
    38    41    38    1
    39    42     6   ar
    40    43    42   ar
    41    44    43    1
    42    45     7   ar
    43    46    45    1
    44    47    46    1
    45    48    46    1
    46    49    46    1
    47    50     3    1
    48    51    50    1
    49    52     8   ar
    50    53    52    1
    51    54    52   ar
    52    55    54    1
    53    56     9   ar
    54    57    56    1
    55    58    10   ar
    56    59    58    1
    57    60    58   ar
    58    61    60    1
    59    62    11   ar
    60    63    62    1
    61    64    12   ar
    62    65    64    1
    63    66    64   ar
    64    67    66    1
    65    68    13   ar
    66    69    68    1
    67    70     9    1
    68    71    70    1
    69     5    50    1
    70     7    50    1
    71    11    70    1
    72    13    70    1
    73    14    18    1
    74    26    30    1
    75    31    33   ar
    76    38    42    1
    77    43    45   ar
    78    54    56   ar
    79    60    62   ar
    80    66    68   ar
    81    72    76    1
    82    73    76    1
    83    74    76    1
    84    75    76    1
    85    77    81    1
    86    78    81    1
    87    79    81    1
    88    80    81    1
@<TRIPOS>SUBSTRUCTURE
     1 RES1        1 GROUP             0 ****  ****    0  
     2 RES2       72 GROUP             0 ****  ****    0  
     3 RES3       77 GROUP             0 ****  ****    0  
@<TRIPOS>CRYSIN
   10.1881   12.0473   14.3434   94.7550   72.7700   87.1160     2     1
