@<TRIPOS>MOLECULE
YIMYUP
    87    94     3     0     0
SMALL
USER_CHARGES
****
Generated from the CSD

@<TRIPOS>ATOM
     1 Fe1      4.0490   0.6330   4.7006   Fe        1 RES1   2.0000
     2 N1       5.2311   0.7389   3.1245   N.ar      1 RES1   0.0000
     3 N2       5.0665   2.0723   5.6597   N.ar      1 RES1   0.0000
     4 N3       5.2306  -0.7581   5.4432   N.ar      1 RES1   0.0000
     5 N4       2.8516   2.0682   3.9940   N.ar      1 RES1   0.0000
     6 N5       3.0047  -0.7545   3.7729   N.ar      1 RES1   0.0000
     7 N6       2.8447   0.4976   6.2883   N.ar      1 RES1   0.0000
     8 C1       2.2463  -0.4624   6.9954   C.ar      1 RES1   0.0000
     9 N7       2.4224   1.6797   6.8526   N.ar      1 RES1   0.0000
    10 C2       5.6529  -0.4079   2.5610   C.ar      1 RES1   0.0000
    11 C3       5.6479   1.9067   2.5821   C.ar      1 RES1   0.0000
    12 H1       5.3499   2.7235   2.9662   H         1 RES1   0.0000
    13 C4       1.4447   0.0962   8.0003   C.ar      1 RES1   0.0000
    14 H2       0.9129  -0.3776   8.6290   H         1 RES1   0.0000
    15 C5       1.5770   1.4576   7.9021   C.ar      1 RES1   0.0000
    16 C6       6.5032  -0.4278   1.4602   C.ar      1 RES1   0.0000
    17 H3       6.7826  -1.2530   1.0825   H         1 RES1   0.0000
    18 C7       6.4952   1.9516   1.4852   C.ar      1 RES1   0.0000
    19 H4       6.7710   2.7852   1.1232   H         1 RES1   0.0000
    20 N8       2.4447   3.0234   4.8969   N.ar      1 RES1   0.0000
    21 C8       6.9327   0.7677   0.9271   C.ar      1 RES1   0.0000
    22 H5       7.5239   0.7761   0.1843   H         1 RES1   0.0000
    23 C9       5.0907   3.9137   6.9934   C.ar      1 RES1   0.0000
    24 C10      3.6598  -1.7527   3.1432   C.ar      1 RES1   0.0000
    25 N9       4.3197   3.0042   6.3325   N.ar      1 RES1   0.0000
    26 C11      1.6659   3.9768   4.3035   C.ar      1 RES1   0.0000
    27 C12      5.6422  -1.7584   4.6387   C.ar      1 RES1   0.0000
    28 C13      2.8819   2.9139   6.2727   C.3       1 RES1   0.0000
    29 H6       2.4931   3.6742   6.7919   H         1 RES1   0.0000
    30 C14      1.5581   3.6090   2.9868   C.ar      1 RES1   0.0000
    31 H7       1.0678   4.0623   2.3105   H         1 RES1   0.0000
    32 C15      1.6136  -2.7654   2.4576   C.ar      1 RES1   0.0000
    33 H8       1.1340  -3.4567   2.0156   H         1 RES1   0.0000
    34 C16      2.9993  -2.7685   2.4671   C.ar      1 RES1   0.0000
    35 H9       3.4857  -3.4515   2.0215   H         1 RES1   0.0000
    36 C17      5.1647  -1.6881   3.2029   C.3       1 RES1   0.0000
    37 H10      5.5423  -2.4652   2.6985   H         1 RES1   0.0000
    38 C18      1.6563  -0.7687   3.7418   C.ar      1 RES1   0.0000
    39 H11      1.1830  -0.0743   4.1845   H         1 RES1   0.0000
    40 C19      6.5075  -1.7118   7.2297   C.ar      1 RES1   0.0000
    41 H12      6.8108  -1.6630   8.1285   H         1 RES1   0.0000
    42 C20      5.6560  -0.7451   6.7232   C.ar      1 RES1   0.0000
    43 H13      5.3611  -0.0481   7.2982   H         1 RES1   0.0000
    44 C21      6.9106  -2.7507   6.4079   C.ar      1 RES1   0.0000
    45 H14      7.4798  -3.4358   6.7395   H         1 RES1   0.0000
    46 C22      2.4556  -1.9247   6.7496   C.3       1 RES1   0.0000
    47 H15      3.0788  -2.0437   6.0023   H         1 RES1   0.0000
    48 H16      1.5983  -2.3449   6.5300   H         1 RES1   0.0000
    49 H17      2.8279  -2.3407   7.5543   H         1 RES1   0.0000
    50 C23      6.3862   3.5466   6.7282   C.ar      1 RES1   0.0000
    51 H18      7.1698   3.9796   7.0460   H         1 RES1   0.0000
    52 C24      6.4703  -2.7787   5.0901   C.ar      1 RES1   0.0000
    53 H19      6.7311  -3.4828   4.5085   H         1 RES1   0.0000
    54 C25      1.1066   5.1405   5.0422   C.3       1 RES1   0.0000
    55 H20      0.6921   4.8310   5.8743   H         1 RES1   0.0000
    56 H21      0.4327   5.5862   4.4872   H         1 RES1   0.0000
    57 H22      1.8264   5.7713   5.2515   H         1 RES1   0.0000
    58 C26      1.0207   2.5523   8.7538   C.3       1 RES1   0.0000
    59 H23      1.6883   2.8187   9.4205   H         1 RES1   0.0000
    60 H24      0.2132   2.2340   9.2091   H         1 RES1   0.0000
    61 H25      0.7961   3.3218   8.1906   H         1 RES1   0.0000
    62 C27      6.3400   2.4154   5.8999   C.ar      1 RES1   0.0000
    63 C28      2.3127   2.4317   2.8287   C.ar      1 RES1   0.0000
    64 C29      0.9385  -1.7456   3.0970   C.ar      1 RES1   0.0000
    65 H26     -0.0111  -1.7205   3.0904   H         1 RES1   0.0000
    66 C30      7.4983   1.6588   5.3340   C.3       1 RES1   0.0000
    67 H27      7.1683   0.8974   4.8131   H         1 RES1   0.0000
    68 H28      8.0648   1.3335   6.0644   H         1 RES1   0.0000
    69 H29      8.0227   2.2497   4.7530   H         1 RES1   0.0000
    70 C31      4.5161   5.0255   7.7976   C.3       1 RES1   0.0000
    71 H30      3.9777   5.6039   7.2187   H         1 RES1   0.0000
    72 H31      5.2425   5.5485   8.1964   H         1 RES1   0.0000
    73 H32      3.9510   4.6563   8.5068   H         1 RES1   0.0000
    74 C32      2.4887   1.6693   1.5512   C.3       1 RES1   0.0000
    75 H33      3.3212   1.1536   1.5908   H         1 RES1   0.0000
    76 H34      2.5271   2.2958   0.7993   H         1 RES1   0.0000
    77 H35      1.7313   1.0585   1.4298   H         1 RES1   0.0000
    78 F1       0.9414  -4.6334   8.0692   F         2 RES2   0.0000
    79 F2      -0.4942  -4.7617   9.8136   F         2 RES2   0.0000
    80 F4       0.3099  -2.7615   9.1412   F         2 RES2   0.0000
    81 B2       0.6106  -4.0978   9.3166   B         2 RES2  -1.0000
    82 F8       1.6662  -4.2328  10.1727   F         2 RES2   0.0000
    83 F3       7.6176   4.8516   0.8033   F         3 RES3   0.0000
    84 F5       5.4978   5.4797   1.3446   F         3 RES3   0.0000
    85 F6       6.9836   5.0108   2.9742   F         3 RES3   0.0000
    86 B1       6.8221   5.5454   1.7002   B         3 RES3  -1.0000
    87 F7       7.2278   6.8770   1.6985   F         3 RES3   0.0000
@<TRIPOS>BOND
     1     1     2    1
     2     2    10   ar
     3     3     1    1
     4     4     1    1
     5     5     1    1
     6     6     1    1
     7     7     1    1
     8     8     7   ar
     9     9     7   ar
    10    10    16   ar
    11    11     2   ar
    12    12    11    1
    13    13     8   ar
    14    14    13    1
    15    15     9   ar
    16    16    17    1
    17    18    11   ar
    18    19    18    1
    19    20     5   ar
    20    21    16   ar
    21    22    21    1
    22    23    25   ar
    23    24     6   ar
    24    25     3   ar
    25    26    20   ar
    26    27     4   ar
    27    28     9    1
    28    29    28    1
    29    30    26   ar
    30    31    30    1
    31    32    33    1
    32    34    24   ar
    33    35    34    1
    34    36    10    1
    35    37    36    1
    36    38     6   ar
    37    39    38    1
    38    40    41    1
    39    42     4   ar
    40    43    42    1
    41    44    40   ar
    42    45    44    1
    43    46     8    1
    44    47    46    1
    45    48    46    1
    46    49    46    1
    47    50    23   ar
    48    51    50    1
    49    52    27   ar
    50    53    52    1
    51    54    26    1
    52    55    54    1
    53    56    54    1
    54    57    54    1
    55    58    15    1
    56    59    58    1
    57    60    58    1
    58    61    58    1
    59    62     3   ar
    60    63     5   ar
    61    64    32   ar
    62    65    64    1
    63    66    62    1
    64    67    66    1
    65    68    66    1
    66    69    66    1
    67    70    23    1
    68    71    70    1
    69    72    70    1
    70    73    70    1
    71    74    63    1
    72    75    74    1
    73    76    74    1
    74    77    74    1
    75    13    15   ar
    76    18    21   ar
    77    20    28    1
    78    24    36    1
    79    25    28    1
    80    27    36    1
    81    30    63   ar
    82    32    34   ar
    83    38    64   ar
    84    40    42   ar
    85    44    52   ar
    86    50    62   ar
    87    78    81    1
    88    79    81    1
    89    80    81    1
    90    81    82    1
    91    83    86    1
    92    84    86    1
    93    85    86    1
    94    86    87    1
@<TRIPOS>SUBSTRUCTURE
     1 RES1        1 GROUP             0 ****  ****    0  
     2 RES2       78 GROUP             0 ****  ****    0  
     3 RES3       83 GROUP             0 ****  ****    0  
@<TRIPOS>CRYSIN
    8.5079   10.4590   19.5340   90.0000   96.7200   90.0000     4     1
