@<TRIPOS>MOLECULE
YIMYUO
   159   172     2     0     0
SMALL
NO_CHARGES
****
Generated from the CSD

@<TRIPOS>ATOM
     1 Fe1     14.8440   1.8131   4.0087   Fe        1 RES1   0.0000
     2 C1      15.9951   3.0479   3.6184   C.1       1 RES1   0.0000
     3 O1      16.7341   3.8841   3.3447   O.2       1 RES1   0.0000
     4 C2      15.7651   1.6427   6.8772   C.2       1 RES1   0.0000
     5 C3      15.7056   2.3673   8.1142   C.2       1 RES1   0.0000
     6 C4      14.9469   3.4624   7.8971   C.2       1 RES1   0.0000
     7 C5      14.5045   3.4007   6.5334   C.2       1 RES1   0.0000
     8 C6      13.6367   4.3165   5.9364   C.2       1 RES1   0.0000
     9 C7      13.0528   4.1430   4.6790   C.2       1 RES1   0.0000
    10 C8      11.9755   4.9199   4.1340   C.2       1 RES1   0.0000
    11 C9      11.6414   4.3664   2.9535   C.2       1 RES1   0.0000
    12 C10     12.5436   3.2700   2.7228   C.2       1 RES1   0.0000
    13 C11     12.6507   2.5799   1.5175   C.2       1 RES1   0.0000
    14 C12     13.7257   1.7579   1.1986   C.2       1 RES1   0.0000
    15 C13     14.0788   1.3577  -0.1312   C.2       1 RES1   0.0000
    16 C14     15.2846   0.7590  -0.0656   C.2       1 RES1   0.0000
    17 C15     15.6491   0.7257   1.3275   C.2       1 RES1   0.0000
    18 C16     16.7684   0.0428   1.8318   C.2       1 RES1   0.0000
    19 C17     16.9878  -0.1568   3.1977   C.2       1 RES1   0.0000
    20 C18     17.9934  -1.0120   3.7608   C.2       1 RES1   0.0000
    21 C19     17.8649  -0.9419   5.1042   C.2       1 RES1   0.0000
    22 C20     16.8265  -0.0059   5.3846   C.2       1 RES1   0.0000
    23 C21     16.5776   0.5250   6.6420   C.2       1 RES1   0.0000
    24 N1      15.0006   2.2818   5.9228   N.2       1 RES1   0.0000
    25 N2      13.3865   3.1275   3.8038   N.2       1 RES1   0.0000
    26 N3      14.6974   1.3458   2.0806   N.2       1 RES1   0.0000
    27 N4      16.2655   0.4430   4.2109   N.2       1 RES1   0.0000
    28 C22     13.2364   5.5304   6.7189   C.ar      1 RES1   0.0000
    29 C23     11.9674   5.6195   7.2774   C.ar      1 RES1   0.0000
    30 C24     11.5760   6.7574   7.9514   C.ar      1 RES1   0.0000
    31 C25     12.4226   7.7943   8.0961   C.ar      1 RES1   0.0000
    32 C26     13.6855   7.7255   7.5556   C.ar      1 RES1   0.0000
    33 C27     14.1173   6.5994   6.8591   C.ar      1 RES1   0.0000
    34 N5      15.4246   6.5472   6.3186   N.am      1 RES1   0.0000
    35 C28     15.7681   7.0520   5.1200   C.2       1 RES1   0.0000
    36 O2      14.9482   7.5592   4.3827   O.2       1 RES1   0.0000
    37 C29     17.2235   6.9332   4.7559   C.3       1 RES1   0.0000
    38 C30     17.5629   6.9890   3.3018   C.3       1 RES1   0.0000
    39 C31     18.9249   6.3975   2.9919   C.3       1 RES1   0.0000
    40 C32     19.3985   6.3987   1.5627   C.3       1 RES1   0.0000
    41 C33     20.0869   5.1028   1.0946   C.3       1 RES1   0.0000
    42 C34     19.1134   4.0575   0.7938   C.3       1 RES1   0.0000
    43 C35     19.6411   2.6571   0.4953   C.2       1 RES1   0.0000
    44 O3      20.7776   2.4219   0.1606   O.2       1 RES1   0.0000
    45 N6      18.6761   1.7104   0.6219   N.am      1 RES1   0.0000
    46 C36     18.7155   0.3385   0.2872   C.ar      1 RES1   0.0000
    47 C37     19.6229  -0.1651  -0.6377   C.ar      1 RES1   0.0000
    48 C38     19.5991  -1.4954  -0.9792   C.ar      1 RES1   0.0000
    49 C39     18.6716  -2.3459  -0.4071   C.ar      1 RES1   0.0000
    50 C40     17.7641  -1.8423   0.5111   C.ar      1 RES1   0.0000
    51 C41     17.7685  -0.5048   0.8684   C.ar      1 RES1   0.0000
    52 C42     11.6199   2.8567   0.4659   C.ar      1 RES1   0.0000
    53 C43     10.4477   2.1107   0.4252   C.ar      1 RES1   0.0000
    54 C44      9.4897   2.3483  -0.5586   C.ar      1 RES1   0.0000
    55 C45      9.6829   3.3496  -1.4745   C.ar      1 RES1   0.0000
    56 C46     10.8410   4.0967  -1.4609   C.ar      1 RES1   0.0000
    57 C47     11.8160   3.8485  -0.5066   C.ar      1 RES1   0.0000
    58 N7      13.0365   4.5647  -0.4772   N.am      1 RES1   0.0000
    59 C48     13.8421   4.7880  -1.5355   C.2       1 RES1   0.0000
    60 O4      13.4723   4.6087  -2.6866   O.2       1 RES1   0.0000
    61 C49     15.2507   5.3012  -1.2416   C.3       1 RES1   0.0000
    62 C50     15.3533   6.7194  -1.7753   C.3       1 RES1   0.0000
    63 C51     16.2142   4.3925  -1.9878   C.3       1 RES1   0.0000
    64 C52     15.5930   5.3012   0.2442   C.3       1 RES1   0.0000
    65 C53     17.4044   0.0249   7.7840   C.ar      1 RES1   0.0000
    66 C54     16.9164  -0.9004   8.6863   C.ar      1 RES1   0.0000
    67 C55     17.7000  -1.3778   9.7357   C.ar      1 RES1   0.0000
    68 C56     18.9879  -0.9277   9.8691   C.ar      1 RES1   0.0000
    69 C57     19.5033   0.0036   9.0030   C.ar      1 RES1   0.0000
    70 C58     18.7314   0.4751   7.9468   C.ar      1 RES1   0.0000
    71 N8      19.2153   1.3826   6.9812   N.am      1 RES1   0.0000
    72 C59     20.3787   2.0846   6.9518   C.2       1 RES1   0.0000
    73 O5      21.1486   2.1131   7.8971   O.2       1 RES1   0.0000
    74 C60     20.6797   2.8685   5.6650   C.3       1 RES1   0.0000
    75 C61     19.6987   2.6714   4.5705   C.3       1 RES1   0.0000
    76 C62     22.0420   2.4682   5.2240   C.3       1 RES1   0.0000
    77 C63     20.7815   4.3355   5.9974   C.3       1 RES1   0.0000
    78 N9      13.4211   0.4335   4.5117   N.2       1 RES1   0.0000
    79 C64     13.4079  -0.8754   4.3104   C.2       1 RES1   0.0000
    80 N10     12.2796  -1.4432   4.7853   N.pl3     1 RES1   0.0000
    81 C65     11.5369  -0.4324   5.3303   C.2       1 RES1   0.0000
    82 C66     12.2498   0.6889   5.1675   C.2       1 RES1   0.0000
    83 C67     11.8996  -2.8400   4.6994   C.3       1 RES1   0.0000
    84 H1      16.1219   2.1226   8.9306   H         1 RES1   0.0000
    85 H2      14.7441   4.1442   8.5258   H         1 RES1   0.0000
    86 H3      11.5714   5.6812   4.5297   H         1 RES1   0.0000
    87 H4      10.9390   4.6479   2.3791   H         1 RES1   0.0000
    88 H5      13.5574   1.4907  -0.9136   H         1 RES1   0.0000
    89 H6      15.7928   0.4229  -0.7938   H         1 RES1   0.0000
    90 H7      18.6303  -1.5287   3.2791   H         1 RES1   0.0000
    91 H8      18.3694  -1.4265   5.7442   H         1 RES1   0.0000
    92 H9      11.3619   4.8902   7.1938   H         1 RES1   0.0000
    93 H10     10.7000   6.8085   8.3177   H         1 RES1   0.0000
    94 H11     12.1467   8.5700   8.5687   H         1 RES1   0.0000
    95 H12     14.2754   8.4619   7.6574   H         1 RES1   0.0000
    96 H13     16.1003   6.1267   6.8342   H         1 RES1   0.0000
    97 H14     17.5350   6.1017   5.0906   H         1 RES1   0.0000
    98 H15     17.6851   7.6435   5.1856   H         1 RES1   0.0000
    99 H16     17.5580   7.8965   3.0213   H         1 RES1   0.0000
   100 H17     16.9053   6.5044   2.8155   H         1 RES1   0.0000
   101 H18     18.9087   5.4912   3.2791   H         1 RES1   0.0000
   102 H19     19.5638   6.8809   3.4985   H         1 RES1   0.0000
   103 H20     20.0188   7.1114   1.4587   H         1 RES1   0.0000
   104 H21     18.6471   6.5495   1.0018   H         1 RES1   0.0000
   105 H22     20.6649   4.7940   1.7798   H         1 RES1   0.0000
   106 H23     20.5910   5.2869   0.3098   H         1 RES1   0.0000
   107 H24     18.6171   4.3414   0.0339   H         1 RES1   0.0000
   108 H25     18.5313   3.9874   1.5401   H         1 RES1   0.0000
   109 H26     17.8540   2.0145   0.9883   H         1 RES1   0.0000
   110 H27     20.2617   0.4122  -1.0358   H         1 RES1   0.0000
   111 H28     20.2214  -1.8328  -1.6102   H         1 RES1   0.0000
   112 H29     18.6575  -3.2665  -0.6400   H         1 RES1   0.0000
   113 H30     17.1230  -2.4255   0.9023   H         1 RES1   0.0000
   114 H31     10.2965   1.4325   1.0742   H         1 RES1   0.0000
   115 H32      8.7012   1.8161  -0.5925   H         1 RES1   0.0000
   116 H33      9.0131   3.5290  -2.1235   H         1 RES1   0.0000
   117 H34     10.9689   4.7821  -2.1032   H         1 RES1   0.0000
   118 H35     13.3125   4.9163   0.3596   H         1 RES1   0.0000
   119 H36     16.2211   7.0603  -1.6034   H         1 RES1   0.0000
   120 H37     15.1901   6.7182  -2.7093   H         1 RES1   0.0000
   121 H38     14.7069   7.2670  -1.3411   H         1 RES1   0.0000
   122 H39     17.1053   4.6787  -1.8295   H         1 RES1   0.0000
   123 H40     16.1085   3.4993  -1.6780   H         1 RES1   0.0000
   124 H41     16.0261   4.4281  -2.9173   H         1 RES1   0.0000
   125 H42     16.4761   5.6278   0.3641   H         1 RES1   0.0000
   126 H43     14.9825   5.8582   0.7101   H         1 RES1   0.0000
   127 H44     15.5342   4.4151   0.5812   H         1 RES1   0.0000
   128 H45     16.0255  -1.2187   8.5891   H         1 RES1   0.0000
   129 H46     17.3458  -2.0074  10.3485   H         1 RES1   0.0000
   130 H47     19.5301  -1.2650  10.5702   H         1 RES1   0.0000
   131 H48     20.3888   0.3255   9.1228   H         1 RES1   0.0000
   132 H49     18.6387   1.5251   6.2372   H         1 RES1   0.0000
   133 H50     19.9587   3.1881   3.8151   H         1 RES1   0.0000
   134 H51     19.6736   1.7532   4.3285   H         1 RES1   0.0000
   135 H52     18.8388   2.9469   4.8622   H         1 RES1   0.0000
   136 H53     22.2652   2.9327   4.4257   H         1 RES1   0.0000
   137 H54     22.6690   2.6809   5.9025   H         1 RES1   0.0000
   138 H55     22.0585   1.5323   5.0589   H         1 RES1   0.0000
   139 H56     20.9673   4.8260   5.2059   H         1 RES1   0.0000
   140 H57     19.9594   4.6324   6.3706   H         1 RES1   0.0000
   141 H58     21.4817   4.4685   6.6261   H         1 RES1   0.0000
   142 H59     14.1541  -1.2603   4.7491   H         1 RES1   0.0000
   143 H60     11.3882  -0.5951   6.2530   H         1 RES1   0.0000
   144 H61     12.4439   1.0595   6.0178   H         1 RES1   0.0000
   145 H62     12.5936  -3.3306   4.2765   H         1 RES1   0.0000
   146 H63     11.7538  -3.1833   5.5723   H         1 RES1   0.0000
   147 H64     11.1000  -2.9196   4.1905   H         1 RES1   0.0000
   148 N11     17.8800   5.7822   7.9875   N.2       2 RES2   0.0000
   149 C68     18.7218   6.8073   8.3109   C.2       2 RES2   0.0000
   150 C69     19.6895   6.3820   9.1499   C.2       2 RES2   0.0000
   151 N12     19.4570   5.0612   9.3512   N.pl3     2 RES2   0.0000
   152 C70     18.3822   4.7560   8.6343   C.2       2 RES2   0.0000
   153 C71     20.2414   4.1811  10.1857   C.3       2 RES2   0.0000
   154 H65     18.2250   7.4974   8.7316   H         2 RES2   0.0000
   155 H66     19.6402   6.8536   9.9731   H         2 RES2   0.0000
   156 H67     17.7145   4.4151   9.2201   H         2 RES2   0.0000
   157 H68     19.8701   3.3056  10.1563   H         2 RES2   0.0000
   158 H69     21.1362   4.1585   9.8668   H         2 RES2   0.0000
   159 H70     20.2290   4.5006  11.0790   H         2 RES2   0.0000
@<TRIPOS>BOND
     1     1     2    1
     2     2     3    3
     3     4     5    1
     4     5     6    2
     5     6     7    1
     6     7     8    1
     7     8     9    2
     8     9    10    1
     9    10    11    2
    10    11    12    1
    11    12    13    2
    12    13    14    1
    13    14    15    1
    14    15    16    2
    15    16    17    1
    16    17    18    2
    17    18    19    1
    18    19    20    2
    19    20    21    1
    20    21    22    2
    21    22    23    1
    22    23     4    2
    23    24     1    1
    24    25     1    1
    25    26     1    1
    26    27     1    1
    27    28     8    1
    28    29    28   ar
    29    30    29   ar
    30    31    30   ar
    31    32    31   ar
    32    33    28   ar
    33    34    33    1
    34    35    34   am
    35    36    35    2
    36    37    35    1
    37    38    37    1
    38    39    38    1
    39    40    39    1
    40    41    40    1
    41    42    41    1
    42    43    42    1
    43    44    43    2
    44    45    43   am
    45    46    45    1
    46    47    46   ar
    47    48    47   ar
    48    49    48   ar
    49    50    49   ar
    50    51    18    1
    51    52    13    1
    52    53    52   ar
    53    54    53   ar
    54    55    54   ar
    55    56    55   ar
    56    57    52   ar
    57    58    57    1
    58    59    58   am
    59    60    59    2
    60    61    59    1
    61    62    61    1
    62    63    61    1
    63    64    61    1
    64    65    23    1
    65    66    65   ar
    66    67    66   ar
    67    68    67   ar
    68    69    68   ar
    69    70    65   ar
    70    71    70    1
    71    72    71   am
    72    73    72    2
    73    74    72    1
    74    75    74    1
    75    76    74    1
    76    77    74    1
    77    78     1    1
    78    79    78    2
    79    80    79    1
    80    81    80    1
    81    82    78    1
    82    83    80    1
    83    84     5    1
    84    85     6    1
    85    86    10    1
    86    87    11    1
    87    88    15    1
    88    89    16    1
    89    90    20    1
    90    91    21    1
    91    92    29    1
    92    93    30    1
    93    94    31    1
    94    95    32    1
    95    96    34    1
    96    97    37    1
    97    98    37    1
    98    99    38    1
    99   100    38    1
   100   101    39    1
   101   102    39    1
   102   103    40    1
   103   104    40    1
   104   105    41    1
   105   106    41    1
   106   107    42    1
   107   108    42    1
   108   109    45    1
   109   110    47    1
   110   111    48    1
   111   112    49    1
   112   113    50    1
   113   114    53    1
   114   115    54    1
   115   116    55    1
   116   117    56    1
   117   118    58    1
   118   119    62    1
   119   120    62    1
   120   121    62    1
   121   122    63    1
   122   123    63    1
   123   124    63    1
   124   125    64    1
   125   126    64    1
   126   127    64    1
   127   128    66    1
   128   129    67    1
   129   130    68    1
   130   131    69    1
   131   132    71    1
   132   133    75    1
   133   134    75    1
   134   135    75    1
   135   136    76    1
   136   137    76    1
   137   138    76    1
   138   139    77    1
   139   140    77    1
   140   141    77    1
   141   142    79    1
   142   143    81    1
   143   144    82    1
   144   145    83    1
   145   146    83    1
   146   147    83    1
   147     4    24    1
   148     7    24    2
   149     9    25    1
   150    12    25    1
   151    14    26    2
   152    17    26    1
   153    19    27    1
   154    22    27    1
   155    32    33   ar
   156    46    51   ar
   157    50    51   ar
   158    56    57   ar
   159    69    70   ar
   160    81    82    2
   161   148   149    1
   162   149   150    2
   163   150   151    1
   164   151   152    1
   165   152   148    2
   166   153   151    1
   167   154   149    1
   168   155   150    1
   169   156   152    1
   170   157   153    1
   171   158   153    1
   172   159   153    1
@<TRIPOS>SUBSTRUCTURE
     1 RES1        1 GROUP             0 ****  ****    0  
     2 RES2      148 GROUP             0 ****  ****    0  
@<TRIPOS>CRYSIN
   23.3940   11.8780   23.8950   90.0000  108.8400   90.0000    14     1
