@<TRIPOS>MOLECULE
YITMUK
    99   102     3     0     0
SMALL
USER_CHARGES
****
Generated from the CSD

@<TRIPOS>ATOM
     1 Fe1      4.0137  -0.0273  -1.1450   Fe        1 RES1   0.0000
     2 B1       4.9089   1.4357   1.4844   B         1 RES1  -1.0000
     3 C1       2.5831   0.4600  -2.3187   C.1       1 RES1   0.0000
     4 C2       3.4558  -1.8491  -1.2981   C.1       1 RES1   0.0000
     5 C3       5.1230  -0.2903  -2.6661   C.1       1 RES1   0.0000
     6 C4       1.6481  -0.0272   0.7276   C.2       1 RES1   0.0000
     7 H1       1.0591  -0.4704   0.1610   H         1 RES1   0.0000
     8 C5       1.3480   0.4198   2.0005   C.2       1 RES1   0.0000
     9 H2       0.5373   0.3447   2.4507   H         1 RES1   0.0000
    10 C6       2.4979   0.9952   2.4526   C.2       1 RES1   0.0000
    11 H3       2.6101   1.3800   3.2909   H         1 RES1   0.0000
    12 C7       4.8222   2.8041  -1.8530   C.2       1 RES1   0.0000
    13 H4       4.6277   2.7277  -2.7592   H         1 RES1   0.0000
    14 C8       5.3697   3.9081  -1.2729   C.2       1 RES1   0.0000
    15 H5       5.6117   4.7063  -1.6842   H         1 RES1   0.0000
    16 C9       5.4818   3.5868   0.0369   C.2       1 RES1   0.0000
    17 H6       5.8299   4.1401   0.6985   H         1 RES1   0.0000
    18 C10      6.3478  -1.5277  -0.0019   C.2       1 RES1   0.0000
    19 H7       6.3419  -2.1951  -0.6481   H         1 RES1   0.0000
    20 C11      7.2767  -1.4202   1.0090   C.2       1 RES1   0.0000
    21 H8       8.0031  -1.9774   1.1759   H         1 RES1   0.0000
    22 C12      6.8979  -0.3239   1.7036   C.2       1 RES1   0.0000
    23 H9       7.3405   0.0130   2.4487   H         1 RES1   0.0000
    24 C13      5.1865   2.2184   2.8329   C.ar      1 RES1   0.0000
    25 C14      5.8441   1.7182   3.9137   C.ar      1 RES1   0.0000
    26 H10      6.2327   0.8760   3.8536   H         1 RES1   0.0000
    27 C15      5.9578   2.4335   5.1167   C.ar      1 RES1   0.0000
    28 H11      6.4203   2.0629   5.8327   H         1 RES1   0.0000
    29 C16      5.4019   3.6503   5.2370   C.ar      1 RES1   0.0000
    30 H12      5.5218   4.1440   6.0151   H         1 RES1   0.0000
    31 C17      4.6817   4.1401   4.2358   C.ar      1 RES1   0.0000
    32 H13      4.2421   4.9538   4.3328   H         1 RES1   0.0000
    33 C18      4.5842   3.4378   3.0444   C.ar      1 RES1   0.0000
    34 H14      4.0875   3.8084   2.3517   H         1 RES1   0.0000
    35 N1       1.6971   0.7788  -2.9862   N.1       1 RES1   0.0000
    36 N2       3.1362  -2.9518  -1.3486   N.1       1 RES1   0.0000
    37 N3       5.8017  -0.4406  -3.5703   N.1       1 RES1   0.0000
    38 N4       2.9161   0.2760   0.4346   N.2       1 RES1   0.0000
    39 N5       3.4362   0.9226   1.5057   N.pl3     1 RES1   0.0000
    40 N6       4.6082   1.8595  -0.9644   N.2       1 RES1   0.0000
    41 N7       5.0116   2.3480   0.2309   N.pl3     1 RES1   0.0000
    42 N8       5.4622  -0.5416   0.0796   N.2       1 RES1   0.0000
    43 N9       5.7917   0.2086   1.1662   N.pl3     1 RES1   0.0000
    44 C19      8.8846   2.5009  15.6024   C.3       2 RES2   0.0000
    45 H15      9.5262   1.7908  15.4414   H         2 RES2   0.0000
    46 H16      8.2862   2.1990  16.3029   H         2 RES2   0.0000
    47 C20      8.0780   2.7082  14.3412   C.3       2 RES2   0.0000
    48 H17      7.4556   3.4416  14.4693   H         2 RES2   0.0000
    49 H18      8.6689   2.9376  13.6097   H         2 RES2   0.0000
    50 C21      7.3195   1.4578  14.0055   C.3       2 RES2   0.0000
    51 H19      7.9468   0.7231  13.9143   H         2 RES2   0.0000
    52 H20      6.7182   1.2453  14.7351   H         2 RES2   0.0000
    53 C22      6.5300   1.5848  12.7443   C.3       2 RES2   0.0000
    54 H21      5.8258   2.2236  12.8704   H         2 RES2   0.0000
    55 H22      6.1523   0.7321  12.5153   H         2 RES2   0.0000
    56 H23      7.1056   1.8802  12.0341   H         2 RES2   0.0000
    57 C23     10.6180   4.2593  15.0553   C.3       2 RES2   0.0000
    58 H24     10.1166   4.5936  14.2946   H         2 RES2   0.0000
    59 H25     11.1174   5.0005  15.4317   H         2 RES2   0.0000
    60 C24     11.5898   3.1903  14.5818   C.3       2 RES2   0.0000
    61 H26     11.8783   2.6460  15.3308   H         2 RES2   0.0000
    62 H27     11.1588   2.6123  13.9318   H         2 RES2   0.0000
    63 C25     12.7621   3.8719  13.9609   C.3       2 RES2   0.0000
    64 H28     13.1906   4.4692  14.5934   H         2 RES2   0.0000
    65 H29     12.4943   4.3811  13.1789   H         2 RES2   0.0000
    66 C26     13.7297   2.6836  13.5612   C.3       2 RES2   0.0000
    67 H30     14.2524   2.4257  14.3237   H         2 RES2   0.0000
    68 H31     14.3138   2.9713  12.8549   H         2 RES2   0.0000
    69 H32     13.2088   1.9359  13.2604   H         2 RES2   0.0000
    70 C27     10.3859   3.2680  17.3604   C.3       2 RES2   0.0000
    71 H33      9.7350   2.9466  18.0065   H         2 RES2   0.0000
    72 H34     10.9573   2.5216  17.1256   H         2 RES2   0.0000
    73 C28     11.2308   4.3267  18.0240   C.3       2 RES2   0.0000
    74 H35     10.6692   5.0290  18.3849   H         2 RES2   0.0000
    75 H36     11.8421   4.7206  17.3817   H         2 RES2   0.0000
    76 C29     12.0298   3.6282  19.1708   C.3       2 RES2   0.0000
    77 H37     11.4277   3.4546  19.9120   H         2 RES2   0.0000
    78 H38     12.3553   2.7730  18.8506   H         2 RES2   0.0000
    79 C30     13.1207   4.3837  19.6384   C.3       2 RES2   0.0000
    80 H39     13.8389   4.3370  19.0039   H         2 RES2   0.0000
    81 H40     13.4161   4.0325  20.4824   H         2 RES2   0.0000
    82 H41     12.8515   5.2985  19.7509   H         2 RES2   0.0000
    83 C31      8.6902   4.8528  16.4329   C.3       2 RES2   0.0000
    84 H42      8.2991   5.1689  15.6024   H         2 RES2   0.0000
    85 H43      9.2054   5.5836  16.8074   H         2 RES2   0.0000
    86 C32      7.5500   4.5185  17.4050   C.3       2 RES2   0.0000
    87 H44      6.9922   3.8252  17.0189   H         2 RES2   0.0000
    88 H45      7.9249   4.1751  18.2316   H         2 RES2   0.0000
    89 C33      6.7052   5.7287  17.7038   C.3       2 RES2   0.0000
    90 H46      6.3521   6.0786  16.8695   H         2 RES2   0.0000
    91 H47      7.2680   6.4155  18.0958   H         2 RES2   0.0000
    92 C34      5.5310   5.4437  18.6604   C.3       2 RES2   0.0000
    93 H48      4.9713   4.7608  18.2840   H         2 RES2   0.0000
    94 H49      5.0189   6.2458  18.7866   H         2 RES2   0.0000
    95 H50      5.8740   5.1456  19.5064   H         2 RES2   0.0000
    96 N10      9.6397   3.7228  16.1069   N.4       2 RES2   1.0000
    97 O1      -1.2720   7.0971  17.4555   O.3       3 RES3   0.0000
    98 H51     -1.8811   6.6786  17.8746   H         3 RES3   0.0000
    99 H52     -1.4670   7.8720  17.1664   H         3 RES3   0.0000
@<TRIPOS>BOND
     1     1     3    1
     2     2    24    1
     3     3    35    3
     4     4     1    1
     5     5     1    1
     6     6     7    1
     7     8     6    1
     8     9     8    1
     9    10     8    2
    10    11    10    1
    11    12    13    1
    12    14    12    1
    13    15    14    1
    14    16    14    2
    15    17    16    1
    16    18    19    1
    17    20    18    1
    18    21    20    1
    19    22    20    2
    20    23    22    1
    21    24    25   ar
    22    25    26    1
    23    27    25   ar
    24    28    27    1
    25    29    27   ar
    26    30    29    1
    27    31    29   ar
    28    32    31    1
    29    33    24   ar
    30    34    33    1
    31    36     4    3
    32    37     5    3
    33    38     1    1
    34    39     2    1
    35    40     1    1
    36    41     2    1
    37    42     1    1
    38    43     2    1
    39     6    38    2
    40    10    39    1
    41    12    40    2
    42    16    41    1
    43    18    42    2
    44    22    43    1
    45    31    33   ar
    46    38    39    1
    47    40    41    1
    48    42    43    1
    49    44    45    1
    50    46    44    1
    51    47    44    1
    52    48    47    1
    53    49    47    1
    54    50    47    1
    55    51    50    1
    56    52    50    1
    57    53    50    1
    58    54    53    1
    59    55    53    1
    60    56    53    1
    61    57    58    1
    62    59    57    1
    63    60    57    1
    64    61    60    1
    65    62    60    1
    66    63    60    1
    67    64    63    1
    68    65    63    1
    69    66    63    1
    70    67    66    1
    71    68    66    1
    72    69    66    1
    73    70    71    1
    74    72    70    1
    75    73    70    1
    76    74    73    1
    77    75    73    1
    78    76    73    1
    79    77    76    1
    80    78    76    1
    81    79    76    1
    82    80    79    1
    83    81    79    1
    84    82    79    1
    85    83    84    1
    86    85    83    1
    87    86    83    1
    88    87    86    1
    89    88    86    1
    90    89    86    1
    91    90    89    1
    92    91    89    1
    93    92    89    1
    94    93    92    1
    95    94    92    1
    96    95    92    1
    97    96    44    1
    98    57    96    1
    99    70    96    1
   100    83    96    1
   101    97    98    1
   102    99    97    1
@<TRIPOS>SUBSTRUCTURE
     1 RES1        1 GROUP             0 ****  ****    0  
     2 RES2       44 GROUP             0 ****  ****    0  
     3 RES3       97 GROUP             0 ****  ****    0  
@<TRIPOS>CRYSIN
   15.4890   12.9580   19.8040   90.0000  101.5410   90.0000    14     1
