@<TRIPOS>MOLECULE
YITNEV
    98   101     2     0     0
SMALL
USER_CHARGES
****
Generated from the CSD

@<TRIPOS>ATOM
     1 Fe1      1.1739   0.6027  24.2795   Fe        1 RES1   0.0000
     2 B1       0.4618   3.0242  26.1590   B         1 RES1  -1.0000
     3 C1       1.6646  -1.1708  24.8567   C.1       1 RES1   0.0000
     4 C2       0.0502  -0.1858  22.9260   C.1       1 RES1   0.0000
     5 C3       2.5727   0.5536  22.9647   C.1       1 RES1   0.0000
     6 C4       0.7203   3.0301  22.5330   C.2       1 RES1   0.0000
     7 H1       0.8902   2.5984  21.7272   H         1 RES1   0.0000
     8 C5       0.3907   4.3668  22.6518   C.2       1 RES1   0.0000
     9 H2       0.2932   4.9917  21.9709   H         1 RES1   0.0000
    10 C6       0.2419   4.5625  23.9904   C.2       1 RES1   0.0000
    11 H3       0.0168   5.3702  24.3939   H         1 RES1   0.0000
    12 C7       3.5301   1.0725  26.1385   C.2       1 RES1   0.0000
    13 H4       4.0673   0.3956  25.7951   H         1 RES1   0.0000
    14 C8       3.8704   1.8965  27.1925   C.2       1 RES1   0.0000
    15 H5       4.6533   1.8781  27.6948   H         1 RES1   0.0000
    16 C9       2.8168   2.7364  27.3376   C.2       1 RES1   0.0000
    17 H6       2.7582   3.4185  27.9662   H         1 RES1   0.0000
    18 C10     -1.3360  -0.1176  25.7965   C.2       1 RES1   0.0000
    19 H7      -1.4478  -0.9542  25.4075   H         1 RES1   0.0000
    20 C11     -2.1804   0.4363  26.7419   C.2       1 RES1   0.0000
    21 H8      -2.9486   0.0565  27.1022   H         1 RES1   0.0000
    22 C12     -1.6455   1.6579  27.0316   C.2       1 RES1   0.0000
    23 H9      -1.9905   2.2685  27.6422   H         1 RES1   0.0000
    24 C13      0.0859   4.3275  27.0105   C.3       1 RES1   0.0000
    25 H10      0.7303   5.0114  26.7671   H         1 RES1   0.0000
    26 H11     -0.7757   4.6316  26.6841   H         1 RES1   0.0000
    27 C14      0.0002   4.3319  28.5508   C.3       1 RES1   0.0000
    28 H12      0.1717   3.4277  28.8883   H         1 RES1   0.0000
    29 C15      1.0329   5.2979  29.1528   C.3       1 RES1   0.0000
    30 H13      0.9006   6.1759  28.7886   H         1 RES1   0.0000
    31 H14      1.9180   4.9930  28.9410   H         1 RES1   0.0000
    32 H15      0.9255   5.3269  30.1068   H         1 RES1   0.0000
    33 C16     -1.3716   4.8011  29.0271   C.3       1 RES1   0.0000
    34 H16     -1.5253   5.7001  28.7250   H         1 RES1   0.0000
    35 H17     -1.4039   4.7762  29.9849   H         1 RES1   0.0000
    36 H18     -2.0503   4.2228  28.6696   H         1 RES1   0.0000
    37 N1       2.0082  -2.1890  25.2405   N.1       1 RES1   0.0000
    38 N2      -0.6231  -0.6449  22.1251   N.1       1 RES1   0.0000
    39 N3       3.3493   0.5829  22.1207   N.1       1 RES1   0.0000
    40 N4       0.7604   2.4456  23.7182   N.2       1 RES1   0.0000
    41 N5       0.4717   3.4027  24.6412   N.pl3     1 RES1   0.0000
    42 N6       2.3185   1.3883  25.6846   N.2       1 RES1   0.0000
    43 N7       1.8729   2.4337  26.4359   N.pl3     1 RES1   0.0000
    44 N8      -0.3391   0.7255  25.5276   N.2       1 RES1   0.0000
    45 N9      -0.5371   1.8344  26.2919   N.pl3     1 RES1   0.0000
    46 C17      6.2562   2.1923  21.4392   C.3       2 RES2   0.0000
    47 H19      5.3852   1.8400  21.6801   H         2 RES2   0.0000
    48 H20      6.9079   1.4944  21.6136   H         2 RES2   0.0000
    49 C18      6.5606   3.3541  22.3522   C.3       2 RES2   0.0000
    50 H21      5.9303   4.0730  22.1924   H         2 RES2   0.0000
    51 H22      7.4537   3.6866  22.1758   H         2 RES2   0.0000
    52 C19      6.4551   2.8836  23.8154   C.3       2 RES2   0.0000
    53 H23      5.6179   2.4091  23.9287   H         2 RES2   0.0000
    54 H24      7.1749   2.2580  23.9924   H         2 RES2   0.0000
    55 C20      6.5187   3.9311  24.7755   C.3       2 RES2   0.0000
    56 H25      7.2967   4.4686  24.6127   H         2 RES2   0.0000
    57 H26      6.5695   3.5539  25.6567   H         2 RES2   0.0000
    58 H27      5.7317   4.4765  24.7068   H         2 RES2   0.0000
    59 C21      5.7311   1.2195  19.2836   C.3       2 RES2   0.0000
    60 H28      6.2964   0.4771  19.5478   H         2 RES2   0.0000
    61 H29      4.8416   1.0422  19.6281   H         2 RES2   0.0000
    62 C22      5.6583   1.2460  17.7888   C.3       2 RES2   0.0000
    63 H30      6.5383   1.4418  17.4294   H         2 RES2   0.0000
    64 H31      5.0588   1.9570  17.5097   H         2 RES2   0.0000
    65 C23      5.1748  -0.0552  17.2305   C.3       2 RES2   0.0000
    66 H32      4.2768  -0.2221  17.5568   H         2 RES2   0.0000
    67 H33      5.7453  -0.7689  17.5595   H         2 RES2   0.0000
    68 C24      5.1609  -0.0973  15.7150   C.3       2 RES2   0.0000
    69 H34      4.5082   0.5244  15.3829   H         2 RES2   0.0000
    70 H35      4.9367  -0.9831  15.4217   H         2 RES2   0.0000
    71 H36      6.0283   0.1419  15.3802   H         2 RES2   0.0000
    72 C25      7.6605   2.8126  19.4550   C.3       2 RES2   0.0000
    73 H37      7.5948   3.1109  18.5343   H         2 RES2   0.0000
    74 H38      7.9995   3.5565  19.9770   H         2 RES2   0.0000
    75 C26      8.6633   1.6891  19.5198   C.3       2 RES2   0.0000
    76 H39      8.3484   0.9463  18.9801   H         2 RES2   0.0000
    77 H40      8.7409   1.3813  20.4367   H         2 RES2   0.0000
    78 C27     10.0207   2.1226  19.0236   C.3       2 RES2   0.0000
    79 H41     10.3434   2.8573  19.5672   H         2 RES2   0.0000
    80 H42      9.9430   2.4380  18.1106   H         2 RES2   0.0000
    81 C28     11.0148   0.9805  19.0801   C.3       2 RES2   0.0000
    82 H43     11.0819   0.6598  19.9826   H         2 RES2   0.0000
    83 H44     11.8744   1.2906  18.7863   H         2 RES2   0.0000
    84 H45     10.7176   0.2694  18.5094   H         2 RES2   0.0000
    85 C29      5.3786   3.6647  19.6049   C.3       2 RES2   0.0000
    86 H46      5.7508   4.4555  20.0269   H         2 RES2   0.0000
    87 H47      5.4149   3.8023  18.6451   H         2 RES2   0.0000
    88 C30      3.9253   3.5434  20.0158   C.3       2 RES2   0.0000
    89 H48      3.5555   2.7232  19.6530   H         2 RES2   0.0000
    90 H49      3.8671   3.4947  20.9823   H         2 RES2   0.0000
    91 C31      3.1135   4.7197  19.5240   C.3       2 RES2   0.0000
    92 H50      2.2314   4.6789  19.9244   H         2 RES2   0.0000
    93 H51      3.5362   5.5385  19.8275   H         2 RES2   0.0000
    94 C32      2.9621   4.7841  18.0450   C.3       2 RES2   0.0000
    95 H52      3.8024   5.0259  17.6481   H         2 RES2   0.0000
    96 H53      2.3008   5.4412  17.8198   H         2 RES2   0.0000
    97 H54      2.6875   3.9258  17.7146   H         2 RES2   0.0000
    98 N10      6.2564   2.4767  19.9527   N.4       2 RES2   1.0000
@<TRIPOS>BOND
     1     1     3    1
     2     2    24    1
     3     3    37    3
     4     4     1    1
     5     5     1    1
     6     6     7    1
     7     8     6    1
     8     9     8    1
     9    10     8    2
    10    11    10    1
    11    12    13    1
    12    14    12    1
    13    15    14    1
    14    16    14    2
    15    17    16    1
    16    18    19    1
    17    20    18    1
    18    21    20    1
    19    22    20    2
    20    23    22    1
    21    24    25    1
    22    26    24    1
    23    27    24    1
    24    28    27    1
    25    29    27    1
    26    30    29    1
    27    31    29    1
    28    32    29    1
    29    33    27    1
    30    34    33    1
    31    35    33    1
    32    36    33    1
    33    38     4    3
    34    39     5    3
    35    40     1    1
    36    41     2    1
    37    42     1    1
    38    43     2    1
    39    44     1    1
    40    45     2    1
    41     6    40    2
    42    10    41    1
    43    12    42    2
    44    16    43    1
    45    18    44    2
    46    22    45    1
    47    40    41    1
    48    42    43    1
    49    44    45    1
    50    46    47    1
    51    48    46    1
    52    49    46    1
    53    50    49    1
    54    51    49    1
    55    52    49    1
    56    53    52    1
    57    54    52    1
    58    55    52    1
    59    56    55    1
    60    57    55    1
    61    58    55    1
    62    59    60    1
    63    61    59    1
    64    62    59    1
    65    63    62    1
    66    64    62    1
    67    65    62    1
    68    66    65    1
    69    67    65    1
    70    68    65    1
    71    69    68    1
    72    70    68    1
    73    71    68    1
    74    72    73    1
    75    74    72    1
    76    75    72    1
    77    76    75    1
    78    77    75    1
    79    78    75    1
    80    79    78    1
    81    80    78    1
    82    81    78    1
    83    82    81    1
    84    83    81    1
    85    84    81    1
    86    85    86    1
    87    87    85    1
    88    88    85    1
    89    89    88    1
    90    90    88    1
    91    91    88    1
    92    92    91    1
    93    93    91    1
    94    94    91    1
    95    95    94    1
    96    96    94    1
    97    97    94    1
    98    98    46    1
    99    59    98    1
   100    72    98    1
   101    85    98    1
@<TRIPOS>SUBSTRUCTURE
     1 RES1        1 GROUP             0 ****  ****    0  
     2 RES2       46 GROUP             0 ****  ****    0  
@<TRIPOS>CRYSIN
    9.8960   13.1430   27.7010   90.0000   91.4570   90.0000    14     1
