@<TRIPOS>MOLECULE
YITNAR
    89    92     2     0     0
SMALL
USER_CHARGES
****
Generated from the CSD

@<TRIPOS>ATOM
     1 Fe1      3.8837   0.9850  23.0209   Fe        1 RES1   0.0000
     2 B1       4.7100   3.2694  25.0131   B         1 RES1  -1.0000
     3 C1       3.3696  -0.7785  23.5397   C.1       1 RES1   0.0000
     4 C2       2.4496   0.9937  21.7542   C.1       1 RES1   0.0000
     5 C3       4.9418   0.2439  21.6066   C.1       1 RES1   0.0000
     6 C4       1.6228   1.4176  25.0052   C.2       1 RES1   0.0000
     7 H1       1.0471   0.7877  24.6361   H         1 RES1   0.0000
     8 C5       1.3437   2.1570  26.1255   C.2       1 RES1   0.0000
     9 H2       0.5811   2.1231  26.6569   H         1 RES1   0.0000
    10 C6       2.4420   2.9577  26.2852   C.2       1 RES1   0.0000
    11 H3       2.5633   3.5811  26.9657   H         1 RES1   0.0000
    12 C7       4.3711   3.4989  21.3975   C.2       1 RES1   0.0000
    13 H4       4.1672   3.1220  20.5711   H         1 RES1   0.0000
    14 C8       4.7559   4.7991  21.5815   C.2       1 RES1   0.0000
    15 H5       4.8767   5.4551  20.9323   H         1 RES1   0.0000
    16 C9       4.9264   4.9204  22.9400   C.2       1 RES1   0.0000
    17 H6       5.1803   5.6963  23.3850   H         1 RES1   0.0000
    18 C10      6.4325   0.1356  24.4029   C.2       1 RES1   0.0000
    19 H7       6.5129  -0.6820  23.9687   H         1 RES1   0.0000
    20 C11      7.3311   0.6168  25.3429   C.2       1 RES1   0.0000
    21 H8       8.1080   0.2087  25.6517   H         1 RES1   0.0000
    22 C12      6.8133   1.8310  25.7088   C.2       1 RES1   0.0000
    23 H9       7.1860   2.4074  26.3349   H         1 RES1   0.0000
    24 C13      5.1582   4.4144  26.0085   C.3       1 RES1   0.0000
    25 H10      4.5759   5.1708  25.9083   H         1 RES1   0.0000
    26 H11      6.0602   4.6765  25.8088   H         1 RES1   0.0000
    27 H12      5.1113   4.0910  26.9108   H         1 RES1   0.0000
    28 N1       3.0422  -1.8310  23.8820   N.1       1 RES1   0.0000
    29 N2       1.6395   1.0107  20.9258   N.1       1 RES1   0.0000
    30 N3       5.6103  -0.1865  20.7858   N.1       1 RES1   0.0000
    31 N4       2.8160   1.7175  24.5184   N.2       1 RES1   0.0000
    32 N5       3.3107   2.6969  25.3047   N.pl3     1 RES1   0.0000
    33 N6       4.3272   2.8469  22.5547   N.2       1 RES1   0.0000
    34 N7       4.6664   3.7402  23.5208   N.pl3     1 RES1   0.0000
    35 N8       5.4440   0.9950  24.2045   N.2       1 RES1   0.0000
    36 N9       5.6856   2.0579  25.0225   N.pl3     1 RES1   0.0000
    37 C14      7.3375   3.1990  18.3062   C.3       2 RES2   0.0000
    38 H13      7.0064   3.9527  18.8200   H         2 RES2   0.0000
    39 H14      7.4610   3.5054  17.3935   H         2 RES2   0.0000
    40 C15      6.2679   2.1413  18.2965   C.3       2 RES2   0.0000
    41 H15      6.0393   1.9092  19.2100   H         2 RES2   0.0000
    42 H16      6.6094   1.3445  17.8620   H         2 RES2   0.0000
    43 C16      5.0239   2.6095  17.5741   C.3       2 RES2   0.0000
    44 H17      4.6536   3.3711  18.0478   H         2 RES2   0.0000
    45 H18      5.2692   2.9055  16.6841   H         2 RES2   0.0000
    46 C17      3.9761   1.5545  17.4615   C.3       2 RES2   0.0000
    47 H19      4.3096   0.8294  16.9302   H         2 RES2   0.0000
    48 H20      3.1939   1.9235  17.0453   H         2 RES2   0.0000
    49 H21      3.7514   1.2324  18.3384   H         2 RES2   0.0000
    50 C18      9.1906   1.5454  18.2266   C.3       2 RES2   0.0000
    51 H22      8.5862   0.8294  18.4771   H         2 RES2   0.0000
    52 H23     10.0605   1.3354  18.6001   H         2 RES2   0.0000
    53 C19      9.3115   1.5610  16.7181   C.3       2 RES2   0.0000
    54 H24      8.4519   1.7788  16.3229   H         2 RES2   0.0000
    55 H25      9.9493   2.2404  16.4485   H         2 RES2   0.0000
    56 C20      9.7624   0.2295  16.2287   C.3       2 RES2   0.0000
    57 H26     10.6579   0.0548  16.5585   H         2 RES2   0.0000
    58 H27      9.1742  -0.4564  16.5820   H         2 RES2   0.0000
    59 C21      9.7612   0.1617  14.7498   C.3       2 RES2   0.0000
    60 H28      8.8857   0.3756  14.4199   H         2 RES2   0.0000
    61 H29     10.0016  -0.7251  14.4697   H         2 RES2   0.0000
    62 H30     10.3976   0.7903  14.4016   H         2 RES2   0.0000
    63 C22      9.6204   3.9814  18.5376   C.3       2 RES2   0.0000
    64 H31      9.2748   4.7769  18.9692   H         2 RES2   0.0000
    65 H32      9.5965   4.1353  17.5793   H         2 RES2   0.0000
    66 C23     11.0821   3.7949  18.9614   C.3       2 RES2   0.0000
    67 H33     11.1311   3.6723  19.9246   H         2 RES2   0.0000
    68 H34     11.4489   3.0046  18.5373   H         2 RES2   0.0000
    69 C24     11.8878   5.0143  18.5609   C.3       2 RES2   0.0000
    70 H35     11.4684   5.8032  18.9352   H         2 RES2   0.0000
    71 H36     12.7760   4.9412  18.9430   H         2 RES2   0.0000
    72 C25     12.0152   5.1955  17.0663   C.3       2 RES2   0.0000
    73 H37     12.3600   4.3896  16.6736   H         2 RES2   0.0000
    74 H38     12.6147   5.9232  16.8830   H         2 RES2   0.0000
    75 H39     11.1533   5.3898  16.6920   H         2 RES2   0.0000
    76 C26      8.6345   2.5521  20.3445   C.3       2 RES2   0.0000
    77 H40      9.4701   2.1387  20.6130   H         2 RES2   0.0000
    78 H41      7.9282   1.9053  20.5031   H         2 RES2   0.0000
    79 C27      8.3895   3.7519  21.2438   C.3       2 RES2   0.0000
    80 H42      7.5091   4.1236  21.0789   H         2 RES2   0.0000
    81 H43      9.0524   4.4405  21.0763   H         2 RES2   0.0000
    82 C28      8.4975   3.2290  22.7175   C.3       2 RES2   0.0000
    83 H44      7.7154   2.6904  22.9138   H         2 RES2   0.0000
    84 H45      9.2759   2.6525  22.7856   H         2 RES2   0.0000
    85 C29      8.5992   4.2240  23.6677   C.3       2 RES2   0.0000
    86 H46      8.3599   5.0664  23.2750   H         2 RES2   0.0000
    87 H47      9.5025   4.2670  23.9896   H         2 RES2   0.0000
    88 H48      8.0068   4.0323  24.3980   H         2 RES2   0.0000
    89 N10      8.6992   2.8208  18.8595   N.4       2 RES2   1.0000
@<TRIPOS>BOND
     1     1     3    1
     2     2    24    1
     3     3    28    3
     4     4     1    1
     5     5     1    1
     6     6     7    1
     7     8     6    1
     8     9     8    1
     9    10     8    2
    10    11    10    1
    11    12    13    1
    12    14    12    1
    13    15    14    1
    14    16    14    2
    15    17    16    1
    16    18    19    1
    17    20    18    1
    18    21    20    1
    19    22    20    2
    20    23    22    1
    21    24    25    1
    22    26    24    1
    23    27    24    1
    24    29     4    3
    25    30     5    3
    26    31     1    1
    27    32     2    1
    28    33     1    1
    29    34     2    1
    30    35     1    1
    31    36     2    1
    32     6    31    2
    33    10    32    1
    34    12    33    2
    35    16    34    1
    36    18    35    2
    37    22    36    1
    38    31    32    1
    39    33    34    1
    40    35    36    1
    41    37    38    1
    42    39    37    1
    43    40    37    1
    44    41    40    1
    45    42    40    1
    46    43    40    1
    47    44    43    1
    48    45    43    1
    49    46    43    1
    50    47    46    1
    51    48    46    1
    52    49    46    1
    53    50    51    1
    54    52    50    1
    55    53    50    1
    56    54    53    1
    57    55    53    1
    58    56    53    1
    59    57    56    1
    60    58    56    1
    61    59    56    1
    62    60    59    1
    63    61    59    1
    64    62    59    1
    65    63    64    1
    66    65    63    1
    67    66    63    1
    68    67    66    1
    69    68    66    1
    70    69    66    1
    71    70    69    1
    72    71    69    1
    73    72    69    1
    74    73    72    1
    75    74    72    1
    76    75    72    1
    77    76    77    1
    78    78    76    1
    79    79    76    1
    80    80    79    1
    81    81    79    1
    82    82    79    1
    83    83    82    1
    84    84    82    1
    85    85    82    1
    86    86    85    1
    87    87    85    1
    88    88    85    1
    89    89    37    1
    90    50    89    1
    91    63    89    1
    92    76    89    1
@<TRIPOS>SUBSTRUCTURE
     1 RES1        1 GROUP             0 ****  ****    0  
     2 RES2       37 GROUP             0 ****  ****    0  
@<TRIPOS>CRYSIN
   10.0030   13.0410   26.1880   90.0000   88.2120   90.0000    14     1
