@<TRIPOS>MOLECULE
YIVROM
    95    99     2     0     0
SMALL
NO_CHARGES
****
Generated from the CSD

@<TRIPOS>ATOM
     1 N1       6.3351   0.8342   9.6157   N.pl3     1 RES1   0.0000
     2 C1       6.9064   0.5109  10.9345   C.3       1 RES1   0.0000
     3 H1       6.2348   0.0693  11.4765   H         1 RES1   0.0000
     4 H2       7.1605   1.3322  11.3846   H         1 RES1   0.0000
     5 C2       8.1147  -0.3839  10.8120   C.3       1 RES1   0.0000
     6 H3       8.4647  -0.5716  11.6858   H         1 RES1   0.0000
     7 H4       8.7863   0.0548  10.2853   H         1 RES1   0.0000
     8 H5       7.8614  -1.2066  10.3857   H         1 RES1   0.0000
     9 C3       5.4756  -0.3103   8.9239   C.3       1 RES1   0.0000
    10 H6       5.6131  -0.2973   7.9641   H         1 RES1   0.0000
    11 H7       5.7423  -1.1792   9.2626   H         1 RES1   0.0000
    12 C4       4.0765  -0.0606   9.2311   C.3       1 RES1   0.0000
    13 H8       3.5340  -0.7346   8.8167   H         1 RES1   0.0000
    14 H9       3.8240   0.8039   8.8967   H         1 RES1   0.0000
    15 H10      3.9490  -0.0852  10.1824   H         1 RES1   0.0000
    16 Fe1      8.3338   4.8106   8.0910   Fe        1 RES1   0.0000
    17 S1       7.9571   2.9027   9.5343   S.3       1 RES1   0.0000
    18 C5       5.4115   2.8748   5.5928   C.ar      1 RES1   0.0000
    19 C6       6.2164   2.9952   6.8512   C.2       1 RES1   0.0000
    20 O1       6.9841   3.9769   6.8955   O.2       1 RES1   0.0000
    21 N2       6.0035   2.0543   7.7506   N.2       1 RES1   0.0000
    22 C7       6.6831   1.9187   8.9129   C.2       1 RES1   0.0000
    23 C8       5.6306   3.7627   4.5445   C.ar      1 RES1   0.0000
    24 H11      6.2922   4.4122   4.6185   H         1 RES1   0.0000
    25 C9       4.4340   1.9037   5.4549   C.ar      1 RES1   0.0000
    26 H12      4.2815   1.2932   6.1407   H         1 RES1   0.0000
    27 C10      4.8698   3.6833   3.3933   C.ar      1 RES1   0.0000
    28 H13      5.0240   4.2823   2.6981   H         1 RES1   0.0000
    29 C11      3.9007   2.7409   3.2682   C.ar      1 RES1   0.0000
    30 H14      3.3882   2.7019   2.4939   H         1 RES1   0.0000
    31 C12      3.6815   1.8417   4.2935   C.ar      1 RES1   0.0000
    32 H15      3.0240   1.1907   4.2033   H         1 RES1   0.0000
    33 N1A     12.7760   5.0692   9.6157   N.pl3     1 RES1   0.0000
    34 C1A     12.7703   5.7256  10.9345   C.3       1 RES1   0.0000
    35 H1A     13.4886   5.3648  11.4765   H         1 RES1   0.0000
    36 H2A     11.9320   5.5351  11.3846   H         1 RES1   0.0000
    37 C2A     12.9411   7.2195  10.8120   C.3       1 RES1   0.0000
    38 H3A     12.9286   7.6164  11.6858   H         1 RES1   0.0000
    39 H4A     12.2253   7.5817  10.2853   H         1 RES1   0.0000
    40 H5A     13.7803   7.4114  10.3857   H         1 RES1   0.0000
    41 C3A     14.1969   4.8972   8.9239   C.3       1 RES1   0.0000
    42 H6A     14.1169   5.0098   7.9641   H         1 RES1   0.0000
    43 H7A     14.8161   5.5625   9.2626   H         1 RES1   0.0000
    44 C4A     14.6802   3.5607   9.2311   C.3       1 RES1   0.0000
    45 H8A     15.5352   3.4279   8.8167   H         1 RES1   0.0000
    46 H9A     14.0578   2.9097   8.8967   H         1 RES1   0.0000
    47 H10A    14.7652   3.4625  10.1824   H         1 RES1   0.0000
    48 S1A     10.1737   5.4397   9.5343   S.3       1 RES1   0.0000
    49 C5A     11.4706   3.2491   5.5928   C.ar      1 RES1   0.0000
    50 C6A     10.9639   3.8860   6.8512   C.2       1 RES1   0.0000
    51 O1A      9.7299   4.0599   6.8955   O.2       1 RES1   0.0000
    52 N2A     11.8852   4.1721   7.7506   N.2       1 RES1   0.0000
    53 C7A     11.6628   4.8283   8.9129   C.2       1 RES1   0.0000
    54 C8A     10.5921   2.9949   4.5445   C.ar      1 RES1   0.0000
    55 H11A     9.6988   3.2431   4.6185   H         1 RES1   0.0000
    56 C9A     12.8003   2.8881   5.4549   C.ar      1 RES1   0.0000
    57 H12A    13.4053   3.0613   6.1407   H         1 RES1   0.0000
    58 C10A    11.0412   2.3757   3.3933   C.ar      1 RES1   0.0000
    59 H13A    10.4454   2.2097   2.6981   H         1 RES1   0.0000
    60 C11A    12.3420   2.0077   3.2682   C.ar      1 RES1   0.0000
    61 H14A    12.6320   1.5833   2.4939   H         1 RES1   0.0000
    62 C12A    13.2303   2.2675   4.2935   C.ar      1 RES1   0.0000
    63 H15A    14.1228   2.0235   4.2033   H         1 RES1   0.0000
    64 N1B      5.8879   8.5297   9.6157   N.pl3     1 RES1   0.0000
    65 C1B      5.3223   8.1966  10.9345   C.3       1 RES1   0.0000
    66 H1B      5.2756   8.9991  11.4765   H         1 RES1   0.0000
    67 H2B      5.9064   7.5659  11.3846   H         1 RES1   0.0000
    68 C2B      3.9432   7.5976  10.8120   C.3       1 RES1   0.0000
    69 H3B      3.6057   7.3883  11.6858   H         1 RES1   0.0000
    70 H4B      3.9873   6.7966  10.2853   H         1 RES1   0.0000
    71 H5B      3.3574   8.2284  10.3857   H         1 RES1   0.0000
    72 C3B      5.3265   9.8463   8.9239   C.3       1 RES1   0.0000
    73 H6B      5.2690   9.7207   7.9641   H         1 RES1   0.0000
    74 H7B      4.4407  10.0498   9.2626   H         1 RES1   0.0000
    75 C4B      6.2423  10.9331   9.2311   C.3       1 RES1   0.0000
    76 H8B      5.9298  11.7399   8.8167   H         1 RES1   0.0000
    77 H9B      7.1172  10.7195   8.8967   H         1 RES1   0.0000
    78 H10B     6.2847  11.0558  10.1824   H         1 RES1   0.0000
    79 S1B      6.8682   6.0908   9.5343   S.3       1 RES1   0.0000
    80 C5B      8.1169   8.3093   5.5928   C.ar      1 RES1   0.0000
    81 C6B      7.8187   7.5520   6.8512   C.2       1 RES1   0.0000
    82 O1B      8.2851   6.3964   6.8955   O.2       1 RES1   0.0000
    83 N2B      7.1103   8.2069   7.7506   N.2       1 RES1   0.0000
    84 C7B      6.6532   7.6861   8.9129   C.2       1 RES1   0.0000
    85 C8B      8.7763   7.6756   4.5445   C.ar      1 RES1   0.0000
    86 H11B     9.0080   6.7778   4.6185   H         1 RES1   0.0000
    87 C9B      7.7647   9.6414   5.4549   C.ar      1 RES1   0.0000
    88 H12B     7.3122  10.0787   6.1407   H         1 RES1   0.0000
    89 C10B     9.0880   8.3741   3.3933   C.ar      1 RES1   0.0000
    90 H13B     9.5296   7.9411   2.6981   H         1 RES1   0.0000
    91 C11B     8.7563   9.6847   3.2682   C.ar      1 RES1   0.0000
    92 H14B     8.9788  10.1480   2.4939   H         1 RES1   0.0000
    93 C12B     8.0872  10.3241   4.2935   C.ar      1 RES1   0.0000
    94 H15B     7.8522  11.2189   4.2033   H         1 RES1   0.0000
    95 O2       0.0000   0.0000  10.6784   O.3       2 RES2   0.0000
@<TRIPOS>BOND
     1     1     2    1
     2     2     3    1
     3     4     2    1
     4     5     2    1
     5     6     5    1
     6     7     5    1
     7     8     5    1
     8     9     1    1
     9    10     9    1
    10    11     9    1
    11    12     9    1
    12    13    12    1
    13    14    12    1
    14    15    12    1
    15    16    17    1
    16    17    22    1
    17    18    19    1
    18    19    20    2
    19    20    16    1
    20    21    19    1
    21    22     1    1
    22    23    18   ar
    23    24    23    1
    24    25    18   ar
    25    26    25    1
    26    27    23   ar
    27    28    27    1
    28    29    27   ar
    29    30    29    1
    30    31    25   ar
    31    32    31    1
    32    33    34    1
    33    34    35    1
    34    36    34    1
    35    37    34    1
    36    38    37    1
    37    39    37    1
    38    40    37    1
    39    41    33    1
    40    42    41    1
    41    43    41    1
    42    44    41    1
    43    45    44    1
    44    46    44    1
    45    47    44    1
    46    48    16    1
    47    49    50    1
    48    50    51    2
    49    51    16    1
    50    52    50    1
    51    53    33    1
    52    54    49   ar
    53    55    54    1
    54    56    49   ar
    55    57    56    1
    56    58    54   ar
    57    59    58    1
    58    60    58   ar
    59    61    60    1
    60    62    56   ar
    61    63    62    1
    62    64    65    1
    63    65    66    1
    64    67    65    1
    65    68    65    1
    66    69    68    1
    67    70    68    1
    68    71    68    1
    69    72    64    1
    70    73    72    1
    71    74    72    1
    72    75    72    1
    73    76    75    1
    74    77    75    1
    75    78    75    1
    76    79    16    1
    77    80    81    1
    78    81    82    2
    79    82    16    1
    80    83    81    1
    81    84    64    1
    82    85    80   ar
    83    86    85    1
    84    87    80   ar
    85    88    87    1
    86    89    85   ar
    87    90    89    1
    88    91    89   ar
    89    92    91    1
    90    93    87   ar
    91    94    93    1
    92    21    22    2
    93    29    31   ar
    94    48    53    1
    95    52    53    2
    96    60    62   ar
    97    79    84    1
    98    83    84    2
    99    91    93   ar
@<TRIPOS>SUBSTRUCTURE
     1 RES1        1 GROUP             0 ****  ****    0  
     2 RES2       95 GROUP             0 ****  ****    0  
@<TRIPOS>CRYSIN
   16.6660   16.6660    8.5087   90.0000   90.0000  120.0000   147     1
