@<TRIPOS>MOLECULE
YIVXAC
    52    60     2     0     0
SMALL
USER_CHARGES
****
Generated from the CSD

@<TRIPOS>ATOM
     1 Fe1     -0.3357   6.8685   5.2047   Fe        1 RES1   1.0000
     2 N1      -0.3007   8.1859   3.7536   N.ar      1 RES1   0.0000
     3 N2       0.7361   8.1337   2.8574   N.ar      1 RES1   0.0000
     4 N3       0.0682   5.4275   3.9233   N.ar      1 RES1   0.0000
     5 N4       1.0510   5.6693   2.9937   N.ar      1 RES1   0.0000
     6 N5      -2.2519   6.5855   4.8934   N.ar      1 RES1   0.0000
     7 N6      -3.0875   6.5745   5.9916   N.ar      1 RES1   0.0000
     8 C1       0.6239   9.1406   1.9674   C.ar      1 RES1   0.0000
     9 C2      -0.5052   9.8508   2.2797   C.ar      1 RES1   0.0000
    10 C3      -1.0718   9.2409   3.3966   C.ar      1 RES1   0.0000
    11 C4       1.6208   9.3920   0.8786   C.3       1 RES1   0.0000
    12 C5      -2.3331   9.6351   4.0982   C.3       1 RES1   0.0000
    13 C6       1.1895   4.5923   2.1901   C.ar      1 RES1   0.0000
    14 C7       0.2687   3.6362   2.6128   C.ar      1 RES1   0.0000
    15 C8      -0.4225   4.1898   3.6860   C.ar      1 RES1   0.0000
    16 C9       2.1946   4.5085   1.0940   C.3       1 RES1   0.0000
    17 C10     -1.5107   3.5318   4.4500   C.3       1 RES1   0.0000
    18 C11     -4.3472   6.4056   5.6002   C.ar      1 RES1   0.0000
    19 C12     -4.3635   6.2998   4.2137   C.ar      1 RES1   0.0000
    20 C13     -3.0359   6.4289   3.8077   C.ar      1 RES1   0.0000
    21 C14     -5.4866   6.3630   6.5662   C.3       1 RES1   0.0000
    22 C15     -2.5594   6.3850   2.3890   C.3       1 RES1   0.0000
    23 B1       1.7757   7.0100   3.0229   B         1 RES1   0.0000
    24 N1B     -0.3706   5.5511   6.6558   N.ar      1 RES1   0.0000
    25 N3B     -0.7395   8.3095   6.4861   N.ar      1 RES1   0.0000
    26 N5B      1.5805   7.1515   5.5159   N.ar      1 RES1   0.0000
    27 B1B     -2.4471   6.7270   7.3865   B         1 RES1   0.0000
    28 N6B      2.4162   7.1625   4.4177   N.ar      1 RES1   0.0000
    29 N2B     -1.4074   5.6033   7.5520   N.ar      1 RES1   0.0000
    30 C3B      0.4005   4.4961   7.0128   C.ar      1 RES1   0.0000
    31 N4B     -1.7224   8.0677   7.4156   N.ar      1 RES1   0.0000
    32 C8B     -0.2488   9.5472   6.7234   C.ar      1 RES1   0.0000
    33 C13B     2.3646   7.3081   6.6016   C.ar      1 RES1   0.0000
    34 C11B     3.6758   7.3314   4.8091   C.ar      1 RES1   0.0000
    35 C1B     -1.2952   4.5964   8.4420   C.ar      1 RES1   0.0000
    36 C2B     -0.1661   3.8862   8.1297   C.ar      1 RES1   0.0000
    37 C5B      1.6618   4.1019   6.3112   C.3       1 RES1   0.0000
    38 C6B     -1.8609   9.1447   8.2192   C.ar      1 RES1   0.0000
    39 C7B     -0.9400  10.1008   7.7966   C.ar      1 RES1   0.0000
    40 C10B     0.8394  10.2052   5.9594   C.3       1 RES1   0.0000
    41 C12B     3.6922   7.4372   6.1957   C.ar      1 RES1   0.0000
    42 C15B     1.8881   7.3520   8.0204   C.3       1 RES1   0.0000
    43 C14B     4.8153   7.3740   3.8431   C.3       1 RES1   0.0000
    44 C4B     -2.2922   4.3450   9.5308   C.3       1 RES1   0.0000
    45 C9B     -2.8659   9.2285   9.3153   C.3       1 RES1   0.0000
    46 P1       6.3735   6.8685   0.0000   P.3       2 RES2  -1.0000
    47 F1       6.9584   7.3136   1.3668   F         2 RES2   0.0000
    48 F2       5.4497   5.8630   0.7453   F         2 RES2   0.0000
    49 F3       5.2402   7.9469   0.1405   F         2 RES2   0.0000
    50 F1B      5.7886   6.4234  -1.3668   F         2 RES2   0.0000
    51 F2B      7.2973   7.8740  -0.7453   F         2 RES2   0.0000
    52 F3B      7.5068   5.7901  -0.1405   F         2 RES2   0.0000
@<TRIPOS>BOND
     1     1     2    1
     2     2     3   ar
     3     3     8   ar
     4     4     1    1
     5     5     4   ar
     6     6     1    1
     7     7     6   ar
     8     8     9   ar
     9     9    10   ar
    10    10     2   ar
    11    11     8    1
    12    12    10    1
    13    13     5   ar
    14    14    13   ar
    15    15     4   ar
    16    16    13    1
    17    17    15    1
    18    18     7   ar
    19    19    18   ar
    20    20     6   ar
    21    21    18    1
    22    22    20    1
    23    23     3    1
    24    24     1    1
    25    25     1    1
    26    26     1    1
    27    27     7    1
    28    28    23    1
    29    29    24   ar
    30    30    24   ar
    31    31    25   ar
    32    32    25   ar
    33    33    26   ar
    34    34    28   ar
    35    35    29   ar
    36    36    30   ar
    37    37    30    1
    38    38    31   ar
    39    39    32   ar
    40    40    32    1
    41    41    33   ar
    42    42    33    1
    43    43    34    1
    44    44    35    1
    45    45    38    1
    46     5    23    1
    47    14    15   ar
    48    19    20   ar
    49    26    28   ar
    50    27    29    1
    51    27    31    1
    52    34    41   ar
    53    35    36   ar
    54    38    39   ar
    55    46    47    1
    56    48    46    1
    57    49    46    1
    58    50    46    1
    59    51    46    1
    60    52    46    1
@<TRIPOS>SUBSTRUCTURE
     1 RES1        1 GROUP             0 ****  ****    0  
     2 RES2       46 GROUP             0 ****  ****    0  
@<TRIPOS>CRYSIN
   12.7470   13.7370   10.4310   90.0000   93.6900   90.0000    14     2
