@<TRIPOS>MOLECULE
YIYWAF
   183   198     3     0     0
SMALL
USER_CHARGES
****
Generated from the CSD

@<TRIPOS>ATOM
     1 Fe1     10.5444   0.6643  18.2229   Fe        1 RES1   2.0000
     2 S1       8.4061  -4.2331  13.0197   S.o2      1 RES1   0.0000
     3 S2       7.8075  -0.2908  11.5460   S.o2      1 RES1   0.0000
     4 S3      10.3514   7.5171  15.8031   S.o2      1 RES1   0.0000
     5 O1       9.4583  -2.9648  12.9774   O.3       1 RES1   0.0000
     6 O2       7.5171  -4.0541  14.1351   O.2       1 RES1   0.0000
     7 O3       7.8967  -4.3079  11.7161   O.2       1 RES1   0.0000
     8 O4       7.3779  -1.1523  12.8819   O.3       1 RES1   0.0000
     9 O5       9.1800  -0.5519  11.2693   O.2       1 RES1   0.0000
    10 O6       6.7959  -0.6461  10.6135   O.2       1 RES1   0.0000
    11 O7      11.2667   6.9314  17.0083   O.3       1 RES1   0.0000
    12 O8       9.7388   6.4172  15.1469   O.2       1 RES1   0.0000
    13 O9      11.2319   8.3620  15.1201   O.2       1 RES1   0.0000
    14 N1      11.0927  -0.7247  16.9386   N.ar      1 RES1   0.0000
    15 N2       8.8900   0.6442  17.1193   N.ar      1 RES1   0.0000
    16 N3      11.2393   2.1324  17.1132   N.ar      1 RES1   0.0000
    17 C1      12.2241  -1.4364  16.8793   C.ar      1 RES1   0.0000
    18 H1      12.8874  -1.2910  17.5426   H         1 RES1   0.0000
    19 C2      12.4709  -2.3816  15.8879   C.ar      1 RES1   0.0000
    20 H2      13.3028  -2.8408  15.8758   H         1 RES1   0.0000
    21 C3      11.5377  -2.6551  14.9413   C.ar      1 RES1   0.0000
    22 H3      11.6853  -3.3265  14.2868   H         1 RES1   0.0000
    23 C4      10.3367  -1.9074  14.9634   C.ar      1 RES1   0.0000
    24 C5      10.1701  -0.9663  15.9730   C.ar      1 RES1   0.0000
    25 C6       8.9838  -0.1652  16.0354   C.ar      1 RES1   0.0000
    26 C7       7.7712   1.3865  17.2099   C.ar      1 RES1   0.0000
    27 H4       7.6700   1.9652  17.9556   H         1 RES1   0.0000
    28 C8       6.7600   1.3424  16.2655   C.ar      1 RES1   0.0000
    29 H5       5.9808   1.8726  16.3836   H         1 RES1   0.0000
    30 C9       6.8760   0.5487  15.1775   C.ar      1 RES1   0.0000
    31 H6       6.1875   0.5241  14.5224   H         1 RES1   0.0000
    32 C10      8.0264  -0.2406  15.0283   C.ar      1 RES1   0.0000
    33 C11      8.2742  -1.1418  13.9463   C.ar      1 RES1   0.0000
    34 C12      9.3202  -2.0001  13.9619   C.ar      1 RES1   0.0000
    35 C13      9.4794  -5.5509  13.3222   C.ar      1 RES1   0.0000
    36 C14      9.4594  -6.1868  14.5394   C.ar      1 RES1   0.0000
    37 H7       8.8805  -5.8989  15.2343   H         1 RES1   0.0000
    38 C15     10.3261  -7.2825  14.7168   C.ar      1 RES1   0.0000
    39 H8      10.3072  -7.7491  15.5453   H         1 RES1   0.0000
    40 C16     11.1771  -7.6893  13.7668   C.ar      1 RES1   0.0000
    41 C17     11.1539  -7.0557  12.5592   C.ar      1 RES1   0.0000
    42 H9      11.7380  -7.3560  11.8716   H         1 RES1   0.0000
    43 C18     10.3114  -5.9980  12.3065   C.ar      1 RES1   0.0000
    44 H10     10.2998  -5.5825  11.4537   H         1 RES1   0.0000
    45 C19     12.1261  -8.8451  14.0462   C.3       1 RES1   0.0000
    46 H11     12.0333  -9.1263  14.9792   H         1 RES1   0.0000
    47 H12     13.0487  -8.5575  13.8810   H         1 RES1   0.0000
    48 H13     11.9078  -9.5961  13.4558   H         1 RES1   0.0000
    49 C20      7.6194   1.3559  12.0733   C.ar      1 RES1   0.0000
    50 C21      6.3889   1.9671  11.8983   C.ar      1 RES1   0.0000
    51 H14      5.6866   1.5274  11.4318   H         1 RES1   0.0000
    52 C22      6.2149   3.2275  12.4183   C.ar      1 RES1   0.0000
    53 H15      5.3766   3.6620  12.3065   H         1 RES1   0.0000
    54 C23      7.2271   3.8889  13.1035   C.ar      1 RES1   0.0000
    55 C24      8.4661   3.2428  13.2347   C.ar      1 RES1   0.0000
    56 H16      9.1757   3.6876  13.6842   H         1 RES1   0.0000
    57 C25      8.6749   1.9831  12.7305   C.ar      1 RES1   0.0000
    58 H17      9.5163   1.5530  12.8265   H         1 RES1   0.0000
    59 C26      6.9994   5.2310  13.7085   C.3       1 RES1   0.0000
    60 H18      6.3172   5.1639  14.4058   H         1 RES1   0.0000
    61 H19      6.6967   5.8542  13.0136   H         1 RES1   0.0000
    62 H20      7.8366   5.5602  14.0972   H         1 RES1   0.0000
    63 C27     10.9208   3.3345  17.6172   C.ar      1 RES1   0.0000
    64 C28     11.3025   4.5395  17.0080   C.ar      1 RES1   0.0000
    65 C29     12.0818   4.4322  15.8345   C.ar      1 RES1   0.0000
    66 H21     12.3654   5.2183  15.3801   H         1 RES1   0.0000
    67 C30     12.4266   3.2022  15.3558   C.ar      1 RES1   0.0000
    68 H22     12.9717   3.1252  14.5832   H         1 RES1   0.0000
    69 C31     11.9784   2.0784  16.0048   C.ar      1 RES1   0.0000
    70 H23     12.2051   1.2271  15.6498   H         1 RES1   0.0000
    71 C32     10.8892   5.7474  17.6228   C.ar      1 RES1   0.0000
    72 C33      9.1937   8.4329  16.6193   C.ar      1 RES1   0.0000
    73 C34      8.0454   7.8258  17.1587   C.ar      1 RES1   0.0000
    74 H24      7.8735   6.9055  16.9862   H         1 RES1   0.0000
    75 C35      7.1997   8.5224  17.9046   C.ar      1 RES1   0.0000
    76 H25      6.4131   8.1166  18.2472   H         1 RES1   0.0000
    77 C36      7.4728   9.8517  18.1792   C.ar      1 RES1   0.0000
    78 C37      8.5673  10.4780  17.5912   C.ar      1 RES1   0.0000
    79 H26      8.7012  11.4111  17.7151   H         1 RES1   0.0000
    80 C38      9.4267   9.7750  16.8598   C.ar      1 RES1   0.0000
    81 H27     10.2007  10.1936  16.5027   H         1 RES1   0.0000
    82 C39      6.4985  10.6826  18.9834   C.3       1 RES1   0.0000
    83 H28      5.6043  10.6123  18.5849   H         1 RES1   0.0000
    84 H29      6.7853  11.6188  18.9785   H         1 RES1   0.0000
    85 H30      6.4722  10.3534  19.9043   H         1 RES1   0.0000
    86 S1B     12.6827  -4.2331  23.4261   S.o2      1 RES1   0.0000
    87 S2B     13.2813  -0.2908  24.8998   S.o2      1 RES1   0.0000
    88 S3B     10.7374   7.5171  20.6427   S.o2      1 RES1   0.0000
    89 O1B     11.6305  -2.9648  23.4684   O.3       1 RES1   0.0000
    90 O2B     13.5717  -4.0541  22.3107   O.2       1 RES1   0.0000
    91 O3B     13.1921  -4.3079  24.7297   O.2       1 RES1   0.0000
    92 O4B     13.7109  -1.1523  23.5639   O.3       1 RES1   0.0000
    93 O5B     11.9088  -0.5519  25.1765   O.2       1 RES1   0.0000
    94 O6B     14.2929  -0.6461  25.8323   O.2       1 RES1   0.0000
    95 O7B      9.8221   6.9314  19.4375   O.3       1 RES1   0.0000
    96 O8B     11.3500   6.4172  21.2989   O.2       1 RES1   0.0000
    97 O9B      9.8569   8.3620  21.3257   O.2       1 RES1   0.0000
    98 N1B      9.9961  -0.7247  19.5072   N.ar      1 RES1   0.0000
    99 N2B     12.1988   0.6442  19.3265   N.ar      1 RES1   0.0000
   100 N3B      9.8495   2.1324  19.3326   N.ar      1 RES1   0.0000
   101 C1B      8.8647  -1.4364  19.5665   C.ar      1 RES1   0.0000
   102 H1B      8.2014  -1.2910  18.9032   H         1 RES1   0.0000
   103 C2B      8.6179  -2.3816  20.5579   C.ar      1 RES1   0.0000
   104 H2B      7.7860  -2.8408  20.5700   H         1 RES1   0.0000
   105 C3B      9.5511  -2.6551  21.5045   C.ar      1 RES1   0.0000
   106 H3B      9.4035  -3.3265  22.1590   H         1 RES1   0.0000
   107 C4B     10.7521  -1.9074  21.4824   C.ar      1 RES1   0.0000
   108 C5B     10.9187  -0.9663  20.4728   C.ar      1 RES1   0.0000
   109 C6B     12.1050  -0.1652  20.4104   C.ar      1 RES1   0.0000
   110 C7B     13.3176   1.3865  19.2359   C.ar      1 RES1   0.0000
   111 H4B     13.4188   1.9652  18.4902   H         1 RES1   0.0000
   112 C8B     14.3288   1.3424  20.1803   C.ar      1 RES1   0.0000
   113 H5B     15.1080   1.8726  20.0622   H         1 RES1   0.0000
   114 C9B     14.2128   0.5487  21.2683   C.ar      1 RES1   0.0000
   115 H6B     14.9013   0.5241  21.9234   H         1 RES1   0.0000
   116 C10B    13.0624  -0.2406  21.4175   C.ar      1 RES1   0.0000
   117 C11B    12.8146  -1.1418  22.4995   C.ar      1 RES1   0.0000
   118 C12B    11.7686  -2.0001  22.4839   C.ar      1 RES1   0.0000
   119 C13B    11.6094  -5.5509  23.1236   C.ar      1 RES1   0.0000
   120 C14B    11.6294  -6.1868  21.9064   C.ar      1 RES1   0.0000
   121 H7B     12.2083  -5.8989  21.2115   H         1 RES1   0.0000
   122 C15B    10.7627  -7.2825  21.7290   C.ar      1 RES1   0.0000
   123 H8B     10.7816  -7.7491  20.9005   H         1 RES1   0.0000
   124 C16B     9.9117  -7.6893  22.6790   C.ar      1 RES1   0.0000
   125 C17B     9.9349  -7.0557  23.8866   C.ar      1 RES1   0.0000
   126 H9B      9.3508  -7.3560  24.5742   H         1 RES1   0.0000
   127 C18B    10.7774  -5.9980  24.1393   C.ar      1 RES1   0.0000
   128 H10B    10.7890  -5.5825  24.9921   H         1 RES1   0.0000
   129 C19B     8.9627  -8.8451  22.3996   C.3       1 RES1   0.0000
   130 H11B     9.0555  -9.1263  21.4666   H         1 RES1   0.0000
   131 H12B     8.0401  -8.5575  22.5648   H         1 RES1   0.0000
   132 H13B     9.1810  -9.5961  22.9900   H         1 RES1   0.0000
   133 C20B    13.4694   1.3559  24.3725   C.ar      1 RES1   0.0000
   134 C21B    14.6999   1.9671  24.5475   C.ar      1 RES1   0.0000
   135 H14B    15.4022   1.5274  25.0140   H         1 RES1   0.0000
   136 C22B    14.8739   3.2275  24.0275   C.ar      1 RES1   0.0000
   137 H15B    15.7122   3.6620  24.1393   H         1 RES1   0.0000
   138 C23B    13.8617   3.8889  23.3423   C.ar      1 RES1   0.0000
   139 C24B    12.6227   3.2428  23.2111   C.ar      1 RES1   0.0000
   140 H16B    11.9131   3.6876  22.7616   H         1 RES1   0.0000
   141 C25B    12.4139   1.9831  23.7153   C.ar      1 RES1   0.0000
   142 H17B    11.5725   1.5530  23.6193   H         1 RES1   0.0000
   143 C26B    14.0894   5.2310  22.7373   C.3       1 RES1   0.0000
   144 H18B    14.7716   5.1639  22.0400   H         1 RES1   0.0000
   145 H19B    14.3921   5.8542  23.4322   H         1 RES1   0.0000
   146 H20B    13.2522   5.5602  22.3486   H         1 RES1   0.0000
   147 C27B    10.1680   3.3345  18.8286   C.ar      1 RES1   0.0000
   148 C28B     9.7863   4.5395  19.4378   C.ar      1 RES1   0.0000
   149 C29B     9.0070   4.4322  20.6113   C.ar      1 RES1   0.0000
   150 H21B     8.7234   5.2183  21.0657   H         1 RES1   0.0000
   151 C30B     8.6622   3.2022  21.0900   C.ar      1 RES1   0.0000
   152 H22B     8.1171   3.1252  21.8626   H         1 RES1   0.0000
   153 C31B     9.1104   2.0784  20.4410   C.ar      1 RES1   0.0000
   154 H23B     8.8837   1.2271  20.7960   H         1 RES1   0.0000
   155 C32B    10.1996   5.7474  18.8230   C.ar      1 RES1   0.0000
   156 C33B    11.8951   8.4329  19.8265   C.ar      1 RES1   0.0000
   157 C34B    13.0434   7.8258  19.2871   C.ar      1 RES1   0.0000
   158 H24B    13.2153   6.9055  19.4596   H         1 RES1   0.0000
   159 C35B    13.8891   8.5224  18.5412   C.ar      1 RES1   0.0000
   160 H25B    14.6757   8.1166  18.1986   H         1 RES1   0.0000
   161 C36B    13.6160   9.8517  18.2666   C.ar      1 RES1   0.0000
   162 C37B    12.5215  10.4780  18.8546   C.ar      1 RES1   0.0000
   163 H26B    12.3876  11.4111  18.7307   H         1 RES1   0.0000
   164 C38B    11.6621   9.7750  19.5860   C.ar      1 RES1   0.0000
   165 H27B    10.8881  10.1936  19.9431   H         1 RES1   0.0000
   166 C39B    14.5903  10.6826  17.4624   C.3       1 RES1   0.0000
   167 H28B    15.4845  10.6123  17.8609   H         1 RES1   0.0000
   168 H29B    14.3035  11.6188  17.4673   H         1 RES1   0.0000
   169 H30B    14.6166  10.3534  16.5415   H         1 RES1   0.0000
   170 P1       5.2722   4.7415  18.2229   P.3       2 RES2  -1.0000
   171 F1       6.6851   4.6961  17.4964   F         2 RES2   0.0000
   172 F2       4.7176   3.6132  17.3093   F         2 RES2   0.0000
   173 F3       4.7924   5.8372  17.2632   F         2 RES2   0.0000
   174 F1B      3.8593   4.6961  18.9494   F         2 RES2   0.0000
   175 F2B      5.8268   3.6132  19.1365   F         2 RES2   0.0000
   176 F3B      5.7520   5.8372  19.1826   F         2 RES2   0.0000
   177 P2       5.2722   1.9582   6.0743   P.3       3 RES3  -1.0000
   178 F4       5.8595   3.0856   7.0294   F         3 RES3   0.0000
   179 F5       3.8962   1.9579   6.9053   F         3 RES3   0.0000
   180 F6       5.8616   0.8433   7.0263   F         3 RES3   0.0000
   181 F4B      4.6849   3.0856   5.1192   F         3 RES3   0.0000
   182 F5B      6.6482   1.9579   5.2433   F         3 RES3   0.0000
   183 F6B      4.6828   0.8433   5.1223   F         3 RES3   0.0000
@<TRIPOS>BOND
     1     1    14    1
     2     2     5    1
     3     3     8    1
     4     4    11    1
     5     5    34    1
     6     6     2    2
     7     7     2    2
     8     8    33    1
     9     9     3    2
    10    10     3    2
    11    11    71    1
    12    12     4    2
    13    13     4    2
    14    14    17   ar
    15    15     1    1
    16    16     1    1
    17    17    18    1
    18    19    17   ar
    19    20    19    1
    20    21    19   ar
    21    22    21    1
    22    23    21   ar
    23    24    14   ar
    24    25    15   ar
    25    26    15   ar
    26    27    26    1
    27    28    26   ar
    28    29    28    1
    29    30    28   ar
    30    31    30    1
    31    32    25   ar
    32    33    32   ar
    33    34    23   ar
    34    35     2    1
    35    36    35   ar
    36    37    36    1
    37    38    36   ar
    38    39    38    1
    39    40    38   ar
    40    41    40   ar
    41    42    41    1
    42    43    35   ar
    43    44    43    1
    44    45    40    1
    45    46    45    1
    46    47    45    1
    47    48    45    1
    48    49     3    1
    49    50    49   ar
    50    51    50    1
    51    52    50   ar
    52    53    52    1
    53    54    52   ar
    54    55    54   ar
    55    56    55    1
    56    57    49   ar
    57    58    57    1
    58    59    54    1
    59    60    59    1
    60    61    59    1
    61    62    59    1
    62    63    16   ar
    63    64    63   ar
    64    65    64   ar
    65    66    65    1
    66    67    65   ar
    67    68    67    1
    68    69    16   ar
    69    70    69    1
    70    71    64   ar
    71    72     4    1
    72    73    72   ar
    73    74    73    1
    74    75    73   ar
    75    76    75    1
    76    77    75   ar
    77    78    77   ar
    78    79    78    1
    79    80    72   ar
    80    81    80    1
    81    82    77    1
    82    83    82    1
    83    84    82    1
    84    85    82    1
    85    86    89    1
    86    87    92    1
    87    88    95    1
    88    89   118    1
    89    90    86    2
    90    91    86    2
    91    92   117    1
    92    93    87    2
    93    94    87    2
    94    95   155    1
    95    96    88    2
    96    97    88    2
    97    98     1    1
    98    99     1    1
    99   100     1    1
   100   101    98   ar
   101   102   101    1
   102   103   101   ar
   103   104   103    1
   104   105   103   ar
   105   106   105    1
   106   107   105   ar
   107   108    98   ar
   108   109    99   ar
   109   110    99   ar
   110   111   110    1
   111   112   110   ar
   112   113   112    1
   113   114   112   ar
   114   115   114    1
   115   116   109   ar
   116   117   116   ar
   117   118   107   ar
   118   119    86    1
   119   120   119   ar
   120   121   120    1
   121   122   120   ar
   122   123   122    1
   123   124   122   ar
   124   125   124   ar
   125   126   125    1
   126   127   119   ar
   127   128   127    1
   128   129   124    1
   129   130   129    1
   130   131   129    1
   131   132   129    1
   132   133    87    1
   133   134   133   ar
   134   135   134    1
   135   136   134   ar
   136   137   136    1
   137   138   136   ar
   138   139   138   ar
   139   140   139    1
   140   141   133   ar
   141   142   141    1
   142   143   138    1
   143   144   143    1
   144   145   143    1
   145   146   143    1
   146   147    63   ar
   147   148   147   ar
   148   149   148   ar
   149   150   149    1
   150   151   149   ar
   151   152   151    1
   152   153   100   ar
   153   154   153    1
   154   155    71   ar
   155   156    88    1
   156   157   156   ar
   157   158   157    1
   158   159   157   ar
   159   160   159    1
   160   161   159   ar
   161   162   161   ar
   162   163   162    1
   163   164   156   ar
   164   165   164    1
   165   166   161    1
   166   167   166    1
   167   168   166    1
   168   169   166    1
   169    23    24   ar
   170    24    25   ar
   171    30    32   ar
   172    33    34   ar
   173    41    43   ar
   174    55    57   ar
   175    67    69   ar
   176    78    80   ar
   177   100   147   ar
   178   107   108   ar
   179   108   109   ar
   180   114   116   ar
   181   117   118   ar
   182   125   127   ar
   183   139   141   ar
   184   148   155   ar
   185   151   153   ar
   186   162   164   ar
   187   170   171    1
   188   172   170    1
   189   173   170    1
   190   174   170    1
   191   175   170    1
   192   176   170    1
   193   177   178    1
   194   179   177    1
   195   180   177    1
   196   181   177    1
   197   182   177    1
   198   183   177    1
@<TRIPOS>SUBSTRUCTURE
     1 RES1        1 GROUP             0 ****  ****    0  
     2 RES2      170 GROUP             0 ****  ****    0  
     3 RES3      177 GROUP             0 ****  ****    0  
@<TRIPOS>CRYSIN
   10.5444   31.9550   24.2972   90.0000   90.0000   90.0000    60     1
