@<TRIPOS>MOLECULE
YIZLUQ
    79    86     1     0     0
SMALL
NO_CHARGES
****
Generated from the CSD

@<TRIPOS>ATOM
     1 Fe1      0.0000   0.0000   0.0000   Fe        1 RES1   0.0000
     2 Cl1     -0.2557  -1.4686   1.8343   Cl        1 RES1   0.0000
     3 P1      -0.8864   2.0940   1.2702   P.3       1 RES1   0.0000
     4 N1       1.7776   0.8286   0.9766   N.ar      1 RES1   0.0000
     5 N2       0.6286   2.7159   1.7942   N.pl3     1 RES1   0.0000
     6 C1       1.8097   1.9881   1.6560   C.ar      1 RES1   0.0000
     7 C2       3.0085   2.4628   2.2185   C.ar      1 RES1   0.0000
     8 H1       3.0273   3.2965   2.6732   H         1 RES1   0.0000
     9 C3       4.1534   1.7093   2.1051   C.ar      1 RES1   0.0000
    10 H2       4.9687   2.0225   2.4803   H         1 RES1   0.0000
    11 C4       4.1155   0.4930   1.4428   C.ar      1 RES1   0.0000
    12 H3       4.8905  -0.0515   1.3679   H         1 RES1   0.0000
    13 C5       2.9131   0.1038   0.8978   C.ar      1 RES1   0.0000
    14 H4       2.8806  -0.7266   0.4372   H         1 RES1   0.0000
    15 C6      -1.9761   2.0821   2.7527   C.ar      1 RES1   0.0000
    16 C7      -2.3707   0.8385   3.2465   C.ar      1 RES1   0.0000
    17 H5      -2.0923   0.0451   2.8035   H         1 RES1   0.0000
    18 C8      -3.1709   0.7504   4.3867   C.ar      1 RES1   0.0000
    19 H6      -3.4384  -0.1005   4.7125   H         1 RES1   0.0000
    20 C9      -3.5759   1.8955   5.0441   C.ar      1 RES1   0.0000
    21 H7      -4.0904   1.8305   5.8399   H         1 RES1   0.0000
    22 C10     -3.2276   3.1453   4.5370   C.ar      1 RES1   0.0000
    23 H8      -3.5234   3.9329   4.9781   H         1 RES1   0.0000
    24 C11     -2.4519   3.2480   3.3910   C.ar      1 RES1   0.0000
    25 H9      -2.2404   4.1029   3.0352   H         1 RES1   0.0000
    26 C12     -1.5828   3.4992   0.3355   C.ar      1 RES1   0.0000
    27 C13     -0.7637   4.3929  -0.3398   C.ar      1 RES1   0.0000
    28 H10      0.1797   4.3181  -0.2580   H         1 RES1   0.0000
    29 C14     -1.3061   5.3967  -1.1350   C.ar      1 RES1   0.0000
    30 H11     -0.7348   6.0185  -1.5683   H         1 RES1   0.0000
    31 C15     -2.6787   5.4907  -1.2958   C.ar      1 RES1   0.0000
    32 H12     -3.0490   6.1628  -1.8552   H         1 RES1   0.0000
    33 C16     -3.5081   4.5976  -0.6349   C.ar      1 RES1   0.0000
    34 H13     -4.4504   4.6620  -0.7391   H         1 RES1   0.0000
    35 C17     -2.9724   3.6136   0.1740   C.ar      1 RES1   0.0000
    36 H14     -3.5496   3.0093   0.6251   H         1 RES1   0.0000
    37 C18      0.7037   3.9651   2.5631   C.3       1 RES1   0.0000
    38 H15      0.8812   3.7590   3.5050   H         1 RES1   0.0000
    39 H16     -0.1465   4.4456   2.4890   H         1 RES1   0.0000
    40 H17      1.4269   4.5242   2.2084   H         1 RES1   0.0000
    41 Cl1B     0.2557   1.4686  -1.8343   Cl        1 RES1   0.0000
    42 P1B      0.8864  -2.0940  -1.2702   P.3       1 RES1   0.0000
    43 N1B     -1.7776  -0.8286  -0.9766   N.ar      1 RES1   0.0000
    44 N2B     -0.6286  -2.7159  -1.7942   N.pl3     1 RES1   0.0000
    45 C1B     -1.8097  -1.9881  -1.6560   C.ar      1 RES1   0.0000
    46 C2B     -3.0085  -2.4628  -2.2185   C.ar      1 RES1   0.0000
    47 H1B     -3.0273  -3.2965  -2.6732   H         1 RES1   0.0000
    48 C3B     -4.1534  -1.7093  -2.1051   C.ar      1 RES1   0.0000
    49 H2B     -4.9687  -2.0225  -2.4803   H         1 RES1   0.0000
    50 C4B     -4.1155  -0.4930  -1.4428   C.ar      1 RES1   0.0000
    51 H3B     -4.8905   0.0515  -1.3679   H         1 RES1   0.0000
    52 C5B     -2.9131  -0.1038  -0.8978   C.ar      1 RES1   0.0000
    53 H4B     -2.8806   0.7266  -0.4372   H         1 RES1   0.0000
    54 C6B      1.9761  -2.0821  -2.7527   C.ar      1 RES1   0.0000
    55 C7B      2.3707  -0.8385  -3.2465   C.ar      1 RES1   0.0000
    56 H5B      2.0923  -0.0451  -2.8035   H         1 RES1   0.0000
    57 C8B      3.1709  -0.7504  -4.3867   C.ar      1 RES1   0.0000
    58 H6B      3.4384   0.1005  -4.7125   H         1 RES1   0.0000
    59 C9B      3.5759  -1.8955  -5.0441   C.ar      1 RES1   0.0000
    60 H7B      4.0904  -1.8305  -5.8399   H         1 RES1   0.0000
    61 C10B     3.2276  -3.1453  -4.5370   C.ar      1 RES1   0.0000
    62 H8B      3.5234  -3.9329  -4.9781   H         1 RES1   0.0000
    63 C11B     2.4519  -3.2480  -3.3910   C.ar      1 RES1   0.0000
    64 H9B      2.2404  -4.1029  -3.0352   H         1 RES1   0.0000
    65 C12B     1.5828  -3.4992  -0.3355   C.ar      1 RES1   0.0000
    66 C13B     0.7637  -4.3929   0.3398   C.ar      1 RES1   0.0000
    67 H10B    -0.1797  -4.3181   0.2580   H         1 RES1   0.0000
    68 C14B     1.3061  -5.3967   1.1350   C.ar      1 RES1   0.0000
    69 H11B     0.7348  -6.0185   1.5683   H         1 RES1   0.0000
    70 C15B     2.6787  -5.4907   1.2958   C.ar      1 RES1   0.0000
    71 H12B     3.0490  -6.1628   1.8552   H         1 RES1   0.0000
    72 C16B     3.5081  -4.5976   0.6349   C.ar      1 RES1   0.0000
    73 H13B     4.4504  -4.6620   0.7391   H         1 RES1   0.0000
    74 C17B     2.9724  -3.6136  -0.1740   C.ar      1 RES1   0.0000
    75 H14B     3.5496  -3.0093  -0.6251   H         1 RES1   0.0000
    76 C18B    -0.7037  -3.9651  -2.5631   C.3       1 RES1   0.0000
    77 H15B    -0.8812  -3.7590  -3.5050   H         1 RES1   0.0000
    78 H16B     0.1465  -4.4456  -2.4890   H         1 RES1   0.0000
    79 H17B    -1.4269  -4.5242  -2.2084   H         1 RES1   0.0000
@<TRIPOS>BOND
     1     1     2    1
     2     3     1    1
     3     4     1    1
     4     5     3    1
     5     6     4   ar
     6     7     6   ar
     7     8     7    1
     8     9     7   ar
     9    10     9    1
    10    11     9   ar
    11    12    11    1
    12    13     4   ar
    13    14    13    1
    14    15     3    1
    15    16    15   ar
    16    17    16    1
    17    18    16   ar
    18    19    18    1
    19    20    18   ar
    20    21    20    1
    21    22    20   ar
    22    23    22    1
    23    24    15   ar
    24    25    24    1
    25    26     3    1
    26    27    26   ar
    27    28    27    1
    28    29    27   ar
    29    30    29    1
    30    31    29   ar
    31    32    31    1
    32    33    31   ar
    33    34    33    1
    34    35    26   ar
    35    36    35    1
    36    37     5    1
    37    38    37    1
    38    39    37    1
    39    40    37    1
    40    41     1    1
    41    42     1    1
    42    43     1    1
    43    44    42    1
    44    45    43   ar
    45    46    45   ar
    46    47    46    1
    47    48    46   ar
    48    49    48    1
    49    50    48   ar
    50    51    50    1
    51    52    43   ar
    52    53    52    1
    53    54    42    1
    54    55    54   ar
    55    56    55    1
    56    57    55   ar
    57    58    57    1
    58    59    57   ar
    59    60    59    1
    60    61    59   ar
    61    62    61    1
    62    63    54   ar
    63    64    63    1
    64    65    42    1
    65    66    65   ar
    66    67    66    1
    67    68    66   ar
    68    69    68    1
    69    70    68   ar
    70    71    70    1
    71    72    70   ar
    72    73    72    1
    73    74    65   ar
    74    75    74    1
    75    76    44    1
    76    77    76    1
    77    78    76    1
    78    79    76    1
    79     5     6    1
    80    11    13   ar
    81    22    24   ar
    82    33    35   ar
    83    44    45    1
    84    50    52   ar
    85    61    63   ar
    86    72    74   ar
@<TRIPOS>SUBSTRUCTURE
     1 RES1        1 GROUP             0 ****  ****    0  
@<TRIPOS>CRYSIN
   10.1491   12.8821   12.8714   90.0000  103.2910   90.0000   231     1
