@<TRIPOS>MOLECULE
YOGKIO
   137   148     2     0     0
SMALL
USER_CHARGES
****
Generated from the CSD

@<TRIPOS>ATOM
     1 Fe1      2.4426   0.9231   2.6776   Fe        1 RES1   1.0000
     2 P1       2.2935   2.7116   1.4155   P.3       1 RES1   0.0000
     3 P2       4.0333  -0.4057   1.8357   P.3       1 RES1   0.0000
     4 P3       1.8815   0.1460   4.6559   P.3       1 RES1   0.0000
     5 O1       0.2631  -0.5246   1.4326   O.2       1 RES1   0.0000
     6 C1       1.1326   0.0667   1.9287   C.1       1 RES1   0.0000
     7 N1       4.0234   1.9093   3.7008   N.3       1 RES1   0.0000
     8 C2       4.4712   3.1821   3.0155   C.3       1 RES1   0.0000
     9 C3       3.2942   3.9105   2.3721   C.3       1 RES1   0.0000
    10 C4       5.2363   1.0240   3.8063   C.3       1 RES1   0.0000
    11 C5       5.5639   0.3642   2.4776   C.3       1 RES1   0.0000
    12 C6       3.5742   2.2608   5.0822   C.3       1 RES1   0.0000
    13 C7       2.9582   1.0727   5.8125   C.3       1 RES1   0.0000
    14 C8       0.6762   3.5770   1.3396   C.ar      1 RES1   0.0000
    15 C9       0.6272   4.8552   0.7799   C.ar      1 RES1   0.0000
    16 C10     -0.5653   5.5836   0.7550   C.ar      1 RES1   0.0000
    17 C11     -1.6993   5.0067   1.2992   C.ar      1 RES1   0.0000
    18 C12     -1.6789   3.7446   1.8233   C.ar      1 RES1   0.0000
    19 C13     -0.4846   3.0271   1.8481   C.ar      1 RES1   0.0000
    20 C14      2.8752   2.8955  -0.3070   C.ar      1 RES1   0.0000
    21 C15      1.9761   2.8846  -1.3675   C.ar      1 RES1   0.0000
    22 C16      2.4160   3.0090  -2.6884   C.ar      1 RES1   0.0000
    23 C17      3.7489   3.1388  -2.9349   C.ar      1 RES1   0.0000
    24 C18      4.6721   3.1280  -1.9380   C.ar      1 RES1   0.0000
    25 C19      4.2417   3.0108  -0.6124   C.ar      1 RES1   0.0000
    26 C20      0.1814   0.5805   5.1365   C.ar      1 RES1   0.0000
    27 C21     -0.8388  -0.3714   5.1675   C.ar      1 RES1   0.0000
    28 C22     -2.1470   0.0216   5.4280   C.ar      1 RES1   0.0000
    29 C23     -2.4853   1.3305   5.6404   C.ar      1 RES1   0.0000
    30 C24     -1.4897   2.2662   5.5954   C.ar      1 RES1   0.0000
    31 C25     -0.1640   1.9291   5.3520   C.ar      1 RES1   0.0000
    32 C26      1.9709  -1.5956   5.1939   C.ar      1 RES1   0.0000
    33 C27      2.3772  -1.9507   6.4761   C.ar      1 RES1   0.0000
    34 C28      2.3498  -3.2723   6.8761   C.ar      1 RES1   0.0000
    35 C29      1.9580  -4.2584   5.9908   C.ar      1 RES1   0.0000
    36 C30      1.5688  -3.9303   4.7179   C.ar      1 RES1   0.0000
    37 C31      1.5612  -2.6016   4.3008   C.ar      1 RES1   0.0000
    38 C32      4.3271  -0.5210   0.0357   C.ar      1 RES1   0.0000
    39 C33      5.5922  -0.8347  -0.4558   C.ar      1 RES1   0.0000
    40 C34      5.7739  -0.9772  -1.8124   C.ar      1 RES1   0.0000
    41 C35      4.7229  -0.8059  -2.6853   C.ar      1 RES1   0.0000
    42 C36      3.4727  -0.5264  -2.2233   C.ar      1 RES1   0.0000
    43 C37      3.2605  -0.3804  -0.8326   C.ar      1 RES1   0.0000
    44 C38      4.1755  -2.1545   2.3194   C.ar      1 RES1   0.0000
    45 C39      4.8046  -2.5385   3.5117   C.ar      1 RES1   0.0000
    46 C40      4.9317  -3.8510   3.8760   C.ar      1 RES1   0.0000
    47 C41      4.3990  -4.8354   3.0745   C.ar      1 RES1   0.0000
    48 C42      3.7346  -4.4964   1.9055   C.ar      1 RES1   0.0000
    49 C43      3.6021  -3.1479   1.5489   C.ar      1 RES1   0.0000
    50 H1       1.6148   1.9868   3.1613   H         1 RES1   0.0000
    51 H2       4.8727   3.7608   3.6683   H         1 RES1   0.0000
    52 H3       5.1174   2.9640   2.3396   H         1 RES1   0.0000
    53 H4       2.7527   4.3161   3.0512   H         1 RES1   0.0000
    54 H5       3.6271   4.5902   1.7814   H         1 RES1   0.0000
    55 H6       5.9859   1.5541   4.0838   H         1 RES1   0.0000
    56 H7       5.0682   0.3426   4.4605   H         1 RES1   0.0000
    57 H8       5.8847   1.0204   1.8574   H         1 RES1   0.0000
    58 H9       6.2375  -0.3083   2.6078   H         1 RES1   0.0000
    59 H10      4.3344   2.5673   5.5815   H         1 RES1   0.0000
    60 H11      2.9226   2.9622   5.0249   H         1 RES1   0.0000
    61 H12      3.6520   0.4958   6.1381   H         1 RES1   0.0000
    62 H13      2.4325   1.3900   6.5520   H         1 RES1   0.0000
    63 H14      1.4228   5.2374   0.4000   H         1 RES1   0.0000
    64 H15     -0.5936   6.4634   0.3721   H         1 RES1   0.0000
    65 H16     -2.5209   5.5025   1.3039   H         1 RES1   0.0000
    66 H17     -2.4816   3.3534   2.1752   H         1 RES1   0.0000
    67 H18     -0.4651   2.1455   2.2248   H         1 RES1   0.0000
    68 H19      1.0389   2.7873  -1.1876   H         1 RES1   0.0000
    69 H20      1.7855   3.0036  -3.4125   H         1 RES1   0.0000
    70 H21      4.0460   3.2398  -3.8388   H         1 RES1   0.0000
    71 H22      5.6085   3.2020  -2.1380   H         1 RES1   0.0000
    72 H23      4.8880   3.0072   0.0977   H         1 RES1   0.0000
    73 H24     -0.6382  -1.2963   5.0094   H         1 RES1   0.0000
    74 H25     -2.8343  -0.6472   5.4605   H         1 RES1   0.0000
    75 H26     -3.3954   1.5829   5.8156   H         1 RES1   0.0000
    76 H27     -1.7169   3.1893   5.7350   H         1 RES1   0.0000
    77 H28      0.5121   2.6106   5.3319   H         1 RES1   0.0000
    78 H29      2.6756  -1.2747   7.0869   H         1 RES1   0.0000
    79 H30      2.6077  -3.5048   7.7722   H         1 RES1   0.0000
    80 H31      1.9535  -5.1761   6.2730   H         1 RES1   0.0000
    81 H32      1.2986  -4.6208   4.1086   H         1 RES1   0.0000
    82 H33      1.2787  -2.3744   3.4125   H         1 RES1   0.0000
    83 H34      6.3298  -0.9501   0.1473   H         1 RES1   0.0000
    84 H35      6.6457  -1.1971  -2.1504   H         1 RES1   0.0000
    85 H36      4.8757  -0.8888  -3.6295   H         1 RES1   0.0000
    86 H37      2.7417  -0.4255  -2.8372   H         1 RES1   0.0000
    87 H38      2.3823  -0.1875  -0.4930   H         1 RES1   0.0000
    88 H39      5.1552  -1.8588   4.0915   H         1 RES1   0.0000
    89 H40      5.3969  -4.0836   4.6822   H         1 RES1   0.0000
    90 H41      4.4806  -5.7567   3.3318   H         1 RES1   0.0000
    91 H42      3.3721  -5.1815   1.3396   H         1 RES1   0.0000
    92 H43      3.1049  -2.9117   0.7628   H         1 RES1   0.0000
    93 B1       6.2840   8.3961   3.1644   B         2 RES2  -1.0000
    94 C44      6.3308   7.6064   4.6109   C.ar      2 RES2   0.0000
    95 C45      7.4821   6.9087   4.9923   C.ar      2 RES2   0.0000
    96 C46      7.6468   6.4057   6.2978   C.ar      2 RES2   0.0000
    97 C47      6.6597   6.5698   7.2404   C.ar      2 RES2   0.0000
    98 C48      5.5045   7.2188   6.8854   C.ar      2 RES2   0.0000
    99 C49      5.3391   7.7254   5.5815   C.ar      2 RES2   0.0000
   100 C50      6.9377   9.8889   3.3706   C.ar      2 RES2   0.0000
   101 C51      7.0210  10.4911   4.6419   C.ar      2 RES2   0.0000
   102 C52      7.5214  11.7856   4.8109   C.ar      2 RES2   0.0000
   103 C53      7.9460  12.5247   3.7396   C.ar      2 RES2   0.0000
   104 C54      7.8930  11.9749   2.4915   C.ar      2 RES2   0.0000
   105 C55      7.3897  10.6768   2.3117   C.ar      2 RES2   0.0000
   106 C56      4.7549   8.5656   2.5938   C.ar      2 RES2   0.0000
   107 C57      4.3775   9.5950   1.7458   C.ar      2 RES2   0.0000
   108 C58      3.1351   9.6509   1.0977   C.ar      2 RES2   0.0000
   109 C59      2.2229   8.6377   1.2822   C.ar      2 RES2   0.0000
   110 C60      2.5221   7.6317   2.1194   C.ar      2 RES2   0.0000
   111 C61      3.7560   7.5740   2.7737   C.ar      2 RES2   0.0000
   112 C62      7.1305   7.5073   2.0589   C.ar      2 RES2   0.0000
   113 C63      6.5917   6.3354   1.4992   C.ar      2 RES2   0.0000
   114 C64      7.3080   5.4952   0.6682   C.ar      2 RES2   0.0000
   115 C65      8.6074   5.7711   0.3488   C.ar      2 RES2   0.0000
   116 C66      9.2041   6.9105   0.8558   C.ar      2 RES2   0.0000
   117 C67      8.4474   7.7525   1.7086   C.ar      2 RES2   0.0000
   118 H44      8.1771   6.7663   4.3458   H         2 RES2   0.0000
   119 H45      8.4548   5.9442   6.5303   H         2 RES2   0.0000
   120 H46      6.7782   6.2362   8.1334   H         2 RES2   0.0000
   121 H47      4.8018   7.3288   7.5319   H         2 RES2   0.0000
   122 H48      4.5162   8.1635   5.3520   H         2 RES2   0.0000
   123 H49      6.7266   9.9989   5.4125   H         2 RES2   0.0000
   124 H50      7.5720  12.1624   5.6916   H         2 RES2   0.0000
   125 H51      8.2721  13.4190   3.8621   H         2 RES2   0.0000
   126 H52      8.2025  12.4761   1.7349   H         2 RES2   0.0000
   127 H53      7.3567  10.3180   1.4217   H         2 RES2   0.0000
   128 H54      5.0031  10.3054   1.5861   H         2 RES2   0.0000
   129 H55      2.9192  10.3955   0.5318   H         2 RES2   0.0000
   130 H56      1.3808   8.6521   0.8202   H         2 RES2   0.0000
   131 H57      1.8769   6.9358   2.2667   H         2 RES2   0.0000
   132 H58      3.9327   6.8402   3.3675   H         2 RES2   0.0000
   133 H59      5.6791   6.1118   1.6977   H         2 RES2   0.0000
   134 H60      6.8875   4.7092   0.3132   H         2 RES2   0.0000
   135 H61      9.1005   5.1761  -0.2202   H         2 RES2   0.0000
   136 H62     10.1091   7.1305   0.6264   H         2 RES2   0.0000
   137 H63      8.8748   8.5331   2.0698   H         2 RES2   0.0000
@<TRIPOS>BOND
     1     1     2    1
     2     2     9    1
     3     3     1    1
     4     4     1    1
     5     5     6    3
     6     6     1    1
     7     7     1    1
     8     8     7    1
     9     9     8    1
    10    10     7    1
    11    11     3    1
    12    12     7    1
    13    13     4    1
    14    14     2    1
    15    15    14   ar
    16    16    15   ar
    17    17    16   ar
    18    18    17   ar
    19    19    14   ar
    20    20     2    1
    21    21    20   ar
    22    22    21   ar
    23    23    22   ar
    24    24    23   ar
    25    25    20   ar
    26    26     4    1
    27    27    26   ar
    28    28    27   ar
    29    29    28   ar
    30    30    29   ar
    31    31    26   ar
    32    32     4    1
    33    33    32   ar
    34    34    33   ar
    35    35    34   ar
    36    36    35   ar
    37    37    32   ar
    38    38     3    1
    39    39    38   ar
    40    40    39   ar
    41    41    40   ar
    42    42    41   ar
    43    43    38   ar
    44    44     3    1
    45    45    44   ar
    46    46    45   ar
    47    47    46   ar
    48    48    47   ar
    49    49    44   ar
    50    50     1    1
    51    51     8    1
    52    52     8    1
    53    53     9    1
    54    54     9    1
    55    55    10    1
    56    56    10    1
    57    57    11    1
    58    58    11    1
    59    59    12    1
    60    60    12    1
    61    61    13    1
    62    62    13    1
    63    63    15    1
    64    64    16    1
    65    65    17    1
    66    66    18    1
    67    67    19    1
    68    68    21    1
    69    69    22    1
    70    70    23    1
    71    71    24    1
    72    72    25    1
    73    73    27    1
    74    74    28    1
    75    75    29    1
    76    76    30    1
    77    77    31    1
    78    78    33    1
    79    79    34    1
    80    80    35    1
    81    81    36    1
    82    82    37    1
    83    83    39    1
    84    84    40    1
    85    85    41    1
    86    86    42    1
    87    87    43    1
    88    88    45    1
    89    89    46    1
    90    90    47    1
    91    91    48    1
    92    92    49    1
    93    10    11    1
    94    12    13    1
    95    18    19   ar
    96    24    25   ar
    97    30    31   ar
    98    36    37   ar
    99    42    43   ar
   100    48    49   ar
   101    93    94    1
   102    94    95   ar
   103    95    96   ar
   104    96    97   ar
   105    97    98   ar
   106    98    99   ar
   107    99    94   ar
   108   100    93    1
   109   101   100   ar
   110   102   101   ar
   111   103   102   ar
   112   104   103   ar
   113   105   100   ar
   114   106    93    1
   115   107   106   ar
   116   108   107   ar
   117   109   108   ar
   118   110   109   ar
   119   111   106   ar
   120   112    93    1
   121   113   112   ar
   122   114   113   ar
   123   115   114   ar
   124   116   115   ar
   125   117   112   ar
   126   118    95    1
   127   119    96    1
   128   120    97    1
   129   121    98    1
   130   122    99    1
   131   123   101    1
   132   124   102    1
   133   125   103    1
   134   126   104    1
   135   127   105    1
   136   128   107    1
   137   129   108    1
   138   130   109    1
   139   131   110    1
   140   132   111    1
   141   133   113    1
   142   134   114    1
   143   135   115    1
   144   136   116    1
   145   137   117    1
   146   104   105   ar
   147   110   111   ar
   148   116   117   ar
@<TRIPOS>SUBSTRUCTURE
     1 RES1        1 GROUP             0 ****  ****    0  
     2 RES2       93 GROUP             0 ****  ****    0  
@<TRIPOS>CRYSIN
   19.2840   18.0290   16.9360   90.0000  113.7300   90.0000    14     1
