@<TRIPOS>MOLECULE
YOMQIC
   104   113     4     0     0
SMALL
NO_CHARGES
****
Generated from the CSD

@<TRIPOS>ATOM
     1 Fe1      5.3924   3.2481   5.5064   Fe        1 RES1   0.0000
     2 Cl1      3.9408   3.1805   9.6725   Cl        1 RES1   0.0000
     3 B1       5.8168   0.5897   6.7989   B         1 RES1   0.0000
     4 B2       4.9422   5.9138   4.2435   B         1 RES1   0.0000
     5 F1       6.0057  -0.6254   7.3957   F         1 RES1   0.0000
     6 F2       4.7546   7.1246   3.6390   F         1 RES1   0.0000
     7 O1       5.4202   1.5500   7.8752   O.3       1 RES1   0.0000
     8 O2       4.0017   5.8123   5.3580   O.3       1 RES1   0.0000
     9 O3       7.1032   1.0096   6.1863   O.3       1 RES1   0.0000
    10 O4       6.3639   5.8525   4.6923   O.3       1 RES1   0.0000
    11 O5       4.7419   0.4340   5.7960   O.3       1 RES1   0.0000
    12 O6       4.6992   4.8642   3.2152   O.3       1 RES1   0.0000
    13 O7       1.6777   7.5529   9.4986   O.3       1 RES1   0.0000
    14 N1       5.1475   2.7886   7.3598   N.2       1 RES1   0.0000
    15 N2       4.2320   4.6732   6.1167   N.2       1 RES1   0.0000
    16 N3       7.0419   2.2761   5.6646   N.2       1 RES1   0.0000
    17 N4       6.6989   4.6316   5.2120   N.2       1 RES1   0.0000
    18 N5       4.5638   1.5824   5.0538   N.2       1 RES1   0.0000
    19 N6       4.7624   3.6020   3.7375   N.2       1 RES1   0.0000
    20 N7       3.2790   5.7597   8.0373   N.pl3     1 RES1   0.0000
    21 C1       4.4485   3.5877   8.0868   C.2       1 RES1   0.0000
    22 C2       3.9725   4.7811   7.3957   C.2       1 RES1   0.0000
    23 C3       8.1665   2.9536   5.6804   C.2       1 RES1   0.0000
    24 C4       7.9722   4.3241   5.2249   C.2       1 RES1   0.0000
    25 C5       4.1134   1.4134   3.8288   C.2       1 RES1   0.0000
    26 C6       4.1021   2.6671   3.1056   C.2       1 RES1   0.0000
    27 C7       3.8062   6.4209   9.2444   C.3       1 RES1   0.0000
    28 H1       4.2787   7.2530   8.9928   H         1 RES1   0.0000
    29 H2       4.4504   5.8227   9.7003   H         1 RES1   0.0000
    30 C8       2.6616   6.7412  10.1693   C.3       1 RES1   0.0000
    31 H3       2.2413   5.8997  10.4791   H         1 RES1   0.0000
    32 H4       3.0044   7.2233  10.9636   H         1 RES1   0.0000
    33 C9       1.1616   6.8755   8.3602   C.3       1 RES1   0.0000
    34 H5       0.4763   7.4444   7.9256   H         1 RES1   0.0000
    35 H6       0.7231   6.0375   8.6505   H         1 RES1   0.0000
    36 C10      2.2431   6.5481   7.3538   C.3       1 RES1   0.0000
    37 H7       1.8625   6.0298   6.6008   H         1 RES1   0.0000
    38 H8       2.6348   7.3823   6.9912   H         1 RES1   0.0000
    39 C11      9.4369   2.4784   6.2390   C.ar      1 RES1   0.0000
    40 C12      9.9870   1.2421   5.9240   C.ar      1 RES1   0.0000
    41 H9       9.5423   0.6657   5.3145   H         1 RES1   0.0000
    42 C13     11.1957   0.8489   6.5028   C.ar      1 RES1   0.0000
    43 H10     11.5790   0.0108   6.2740   H         1 RES1   0.0000
    44 C14     11.8387   1.6753   7.4161   C.ar      1 RES1   0.0000
    45 H11     12.6552   1.3970   7.8160   H         1 RES1   0.0000
    46 C15     11.2888   2.9076   7.7430   C.ar      1 RES1   0.0000
    47 H12     11.7265   3.4722   8.3698   H         1 RES1   0.0000
    48 C16     10.1022   3.3133   7.1534   C.ar      1 RES1   0.0000
    49 H13      9.7346   4.1630   7.3699   H         1 RES1   0.0000
    50 C17      9.0925   5.1957   4.7929   C.ar      1 RES1   0.0000
    51 C18     10.1652   4.6336   4.0907   C.ar      1 RES1   0.0000
    52 H14     10.1476   3.7109   3.8667   H         1 RES1   0.0000
    53 C19     11.2480   5.4059   3.7205   C.ar      1 RES1   0.0000
    54 H15     11.9690   5.0166   3.2399   H         1 RES1   0.0000
    55 C20     11.2793   6.7573   4.0551   C.ar      1 RES1   0.0000
    56 H16     12.0324   7.2859   3.8186   H         1 RES1   0.0000
    57 C21     10.2204   7.3301   4.7261   C.ar      1 RES1   0.0000
    58 H17     10.2389   8.2563   4.9357   H         1 RES1   0.0000
    59 C22      9.1280   6.5596   5.0982   C.ar      1 RES1   0.0000
    60 H18      8.4021   6.9594   5.5626   H         1 RES1   0.0000
    61 C23      3.7665   0.1296   3.1902   C.ar      1 RES1   0.0000
    62 C24      4.2682  -0.1238   1.9228   C.ar      1 RES1   0.0000
    63 H19      4.8428   0.5097   1.5074   H         1 RES1   0.0000
    64 C25      3.9385  -1.2887   1.2556   C.ar      1 RES1   0.0000
    65 H20      4.3104  -1.4629   0.3999   H         1 RES1   0.0000
    66 C26      3.0860  -2.1910   1.8170   C.ar      1 RES1   0.0000
    67 H21      2.8393  -2.9746   1.3402   H         1 RES1   0.0000
    68 C27      2.5772  -1.9588   3.0860   C.ar      1 RES1   0.0000
    69 H22      1.9836  -2.5869   3.4783   H         1 RES1   0.0000
    70 C28      2.9330  -0.8139   3.7821   C.ar      1 RES1   0.0000
    71 H23      2.6080  -0.6747   4.6646   H         1 RES1   0.0000
    72 C29      3.3677   2.8853   1.8374   C.ar      1 RES1   0.0000
    73 C30      3.9798   3.5180   0.7672   C.ar      1 RES1   0.0000
    74 H24      4.8737   3.8283   0.8537   H         1 RES1   0.0000
    75 C31      3.2983   3.7026  -0.4288   C.ar      1 RES1   0.0000
    76 H25      3.7282   4.1351  -1.1594   H         1 RES1   0.0000
    77 C32      1.9981   3.2595  -0.5576   C.ar      1 RES1   0.0000
    78 H26      1.5297   3.3901  -1.3729   H         1 RES1   0.0000
    79 C33      1.3800   2.6234   0.5038   C.ar      1 RES1   0.0000
    80 H27      0.4849   2.3184   0.4134   H         1 RES1   0.0000
    81 C34      2.0565   2.4285   1.7016   C.ar      1 RES1   0.0000
    82 H28      1.6286   1.9857   2.4246   H         1 RES1   0.0000
    83 Cl2      3.1809  -1.8651   7.7608   Cl        2 RES2   0.0000
    84 Cl3      2.1786  -4.5199   8.4067   Cl        2 RES2   0.0000
    85 Cl4      0.6279  -2.7433   6.7320   Cl        2 RES2   0.0000
    86 C35      1.7407  -2.8293   8.0852   C.3       2 RES2   0.0000
    87 H29      1.2856  -2.4585   8.8947   H         2 RES2   0.0000
    88 Cl5     -0.3064  -0.3822   2.2154   Cl        3 RES3   0.0000
    89 Cl6     -2.8468  -0.7053   3.4408   Cl        3 RES3   0.0000
    90 Cl7     -2.3049   1.7435   2.0939   Cl        3 RES3   0.0000
    91 C36     -2.0266   0.0045   2.0862   C.3       3 RES3   0.0000
    92 H30     -2.3904  -0.3836   1.2383   H         3 RES3   0.0000
    93 C37      6.5414   5.8552   0.6191   C.ar      4 RES4   0.0000
    94 H31      5.7402   6.1257   1.0498   H         4 RES4   0.0000
    95 C38      7.5654   5.2861   1.3748   C.ar      4 RES4   0.0000
    96 H32      7.4587   5.1281   2.3054   H         4 RES4   0.0000
    97 C39      8.7423   4.9592   0.7230   C.ar      4 RES4   0.0000
    98 H33      9.4718   4.6072   1.2210   H         4 RES4   0.0000
    99 C37A     8.8699   5.1333  -0.6191   C.ar      4 RES4   0.0000
   100 H31A     9.6711   4.8629  -1.0498   H         4 RES4   0.0000
   101 C38A     7.8459   5.7025  -1.3748   C.ar      4 RES4   0.0000
   102 H32A     7.9526   5.8604  -2.3054   H         4 RES4   0.0000
   103 C39A     6.6690   6.0293  -0.7230   C.ar      4 RES4   0.0000
   104 H33A     5.9395   6.3814  -1.2210   H         4 RES4   0.0000
@<TRIPOS>BOND
     1     1    14    1
     2     2    21    1
     3     3     5    1
     4     4     6    1
     5     7     3    1
     6     8     4    1
     7     9     3    1
     8    10     4    1
     9    11     3    1
    10    12     4    1
    11    13    30    1
    12    14     7    1
    13    15     1    1
    14    16     1    1
    15    17     1    1
    16    18     1    1
    17    19     1    1
    18    20    22    1
    19    21    14    2
    20    22    15    2
    21    23    16    2
    22    24    17    2
    23    25    18    2
    24    26    19    2
    25    27    20    1
    26    28    27    1
    27    29    27    1
    28    30    27    1
    29    31    30    1
    30    32    30    1
    31    33    13    1
    32    34    33    1
    33    35    33    1
    34    36    20    1
    35    37    36    1
    36    38    36    1
    37    39    23    1
    38    40    39   ar
    39    41    40    1
    40    42    40   ar
    41    43    42    1
    42    44    42   ar
    43    45    44    1
    44    46    44   ar
    45    47    46    1
    46    48    39   ar
    47    49    48    1
    48    50    24    1
    49    51    50   ar
    50    52    51    1
    51    53    51   ar
    52    54    53    1
    53    55    53   ar
    54    56    55    1
    55    57    55   ar
    56    58    57    1
    57    59    50   ar
    58    60    59    1
    59    61    25    1
    60    62    61   ar
    61    63    62    1
    62    64    62   ar
    63    65    64    1
    64    66    64   ar
    65    67    66    1
    66    68    66   ar
    67    69    68    1
    68    70    61   ar
    69    71    70    1
    70    72    26    1
    71    73    72   ar
    72    74    73    1
    73    75    73   ar
    74    76    75    1
    75    77    75   ar
    76    78    77    1
    77    79    77   ar
    78    80    79    1
    79    81    72   ar
    80    82    81    1
    81     8    15    1
    82     9    16    1
    83    10    17    1
    84    11    18    1
    85    12    19    1
    86    21    22    1
    87    23    24    1
    88    25    26    1
    89    33    36    1
    90    46    48   ar
    91    57    59   ar
    92    68    70   ar
    93    79    81   ar
    94    83    86    1
    95    84    86    1
    96    85    86    1
    97    86    87    1
    98    88    91    1
    99    89    91    1
   100    90    91    1
   101    91    92    1
   102    93    94    1
   103    95    93   ar
   104    96    95    1
   105    97    95   ar
   106    98    97    1
   107    99    97   ar
   108   100    99    1
   109   101    99   ar
   110   102   101    1
   111   103    93   ar
   112   104   103    1
   113   101   103   ar
@<TRIPOS>SUBSTRUCTURE
     1 RES1        1 GROUP             0 ****  ****    0  
     2 RES2       83 GROUP             0 ****  ****    0  
     3 RES3       88 GROUP             0 ****  ****    0  
     4 RES4       93 GROUP             0 ****  ****    0  
@<TRIPOS>CRYSIN
   10.2510   12.1105   20.1158   97.2880  100.7890  114.8570     2     1
