@<TRIPOS>MOLECULE
YOMVIF
    87    90     3     0     0
SMALL
NO_CHARGES
****
Generated from the CSD

@<TRIPOS>ATOM
     1 Fe1      0.0000   0.0000   0.0000   Fe        1 RES1   0.0000
     2 O1       0.5632   1.4982  -1.2062   O.3       1 RES1   0.0000
     3 N1       2.8011   0.4366  -2.7089   N.am      1 RES1   0.0000
     4 C1       0.5220   1.3684  -2.6370   C.3       1 RES1   0.0000
     5 C2       1.4263   0.2208  -3.0963   C.3       1 RES1   0.0000
     6 O2       3.5274   0.9934  -4.7559   O.2       1 RES1   0.0000
     7 C3       3.7655   0.7921  -3.5686   C.2       1 RES1   0.0000
     8 C4       5.1412   0.9252  -3.0165   C.3       1 RES1   0.0000
     9 H1       0.8978   2.4705  -0.8517   H         1 RES1   0.0000
    10 H2       3.0120   0.3409  -1.9051   H         1 RES1   0.0000
    11 H3       0.8594   2.2027  -2.9765   H         1 RES1   0.0000
    12 H4       1.4029   0.1834  -4.1018   H         1 RES1   0.0000
    13 H5       5.5835   1.2564  -3.6036   H         1 RES1   0.0000
    14 H6       5.2780   1.6784  -2.2806   H         1 RES1   0.0000
    15 H7       5.3099   0.4902  -2.4543   H         1 RES1   0.0000
    16 O1I     -0.5632  -1.4982   1.2062   O.3       1 RES1   0.0000
    17 O1A     -1.5791  -0.2613  -1.2062   O.3       1 RES1   0.0000
    18 O1J      1.5791   0.2613   1.2062   O.3       1 RES1   0.0000
    19 O1B      1.0159  -1.2369  -1.2062   O.3       1 RES1   0.0000
    20 O1K     -1.0159   1.2369   1.2062   O.3       1 RES1   0.0000
    21 C2A     -0.9043   1.1249  -3.0963   C.3       1 RES1   0.0000
    22 C1B      0.9240  -1.1362  -2.6370   C.3       1 RES1   0.0000
    23 C1I     -0.5220  -1.3684   2.6370   C.3       1 RES1   0.0000
    24 H1I     -0.8978  -2.4705   0.8517   H         1 RES1   0.0000
    25 C1A     -1.4460  -0.2321  -2.6370   C.3       1 RES1   0.0000
    26 H1A     -2.5884  -0.4577  -0.8517   H         1 RES1   0.0000
    27 C1J      1.4460   0.2321   2.6370   C.3       1 RES1   0.0000
    28 H1J      2.5884   0.4577   0.8517   H         1 RES1   0.0000
    29 H1B      1.6906  -2.0128  -0.8517   H         1 RES1   0.0000
    30 C1K     -0.9240   1.1362   2.6370   C.3       1 RES1   0.0000
    31 H1K     -1.6906   2.0128   0.8517   H         1 RES1   0.0000
    32 N1A     -1.7787   2.2075  -2.7089   N.am      1 RES1   0.0000
    33 H4A     -0.8603   1.1232  -4.1018   H         1 RES1   0.0000
    34 C2B     -0.5220  -1.3456  -3.0963   C.3       1 RES1   0.0000
    35 H3B      1.4779  -1.8456  -2.9765   H         1 RES1   0.0000
    36 C2I     -1.4263  -0.2208   3.0963   C.3       1 RES1   0.0000
    37 C2J      0.9043  -1.1249   3.0963   C.3       1 RES1   0.0000
    38 H3I     -0.8594  -2.2027   2.9765   H         1 RES1   0.0000
    39 H3A     -2.3373  -0.3571  -2.9765   H         1 RES1   0.0000
    40 C2K      0.5220   1.3456   3.0963   C.3       1 RES1   0.0000
    41 H3J      2.3373   0.3571   2.9765   H         1 RES1   0.0000
    42 H3K     -1.4779   1.8456   2.9765   H         1 RES1   0.0000
    43 C3A     -2.5687   2.8649  -3.5686   C.2       1 RES1   0.0000
    44 H2A     -1.8012   2.4380  -1.9051   H         1 RES1   0.0000
    45 N1B     -1.0224  -2.6442  -2.7089   N.am      1 RES1   0.0000
    46 H4B     -0.5426  -1.3067  -4.1018   H         1 RES1   0.0000
    47 N1I     -2.8011  -0.4366   2.7089   N.am      1 RES1   0.0000
    48 H4I     -1.4029  -0.1834   4.1018   H         1 RES1   0.0000
    49 N1J      1.7787  -2.2075   2.7089   N.am      1 RES1   0.0000
    50 H4J      0.8603  -1.1232   4.1018   H         1 RES1   0.0000
    51 N1K      1.0224   2.6442   2.7089   N.am      1 RES1   0.0000
    52 H4K      0.5426   1.3067   4.1018   H         1 RES1   0.0000
    53 O2A     -2.6240   2.5581  -4.7559   O.2       1 RES1   0.0000
    54 C4A     -3.3719   3.9898  -3.0165   C.3       1 RES1   0.0000
    55 C3B     -1.1967  -3.6571  -3.5686   C.2       1 RES1   0.0000
    56 H2B     -1.2108  -2.7789  -1.9051   H         1 RES1   0.0000
    57 C3I     -3.7655  -0.7921   3.5686   C.2       1 RES1   0.0000
    58 H2I     -3.0120  -0.3409   1.9051   H         1 RES1   0.0000
    59 C3J      2.5687  -2.8649   3.5686   C.2       1 RES1   0.0000
    60 H2J      1.8012  -2.4380   1.9051   H         1 RES1   0.0000
    61 C3K      1.1967   3.6571   3.5686   C.2       1 RES1   0.0000
    62 H2K      1.2108   2.7789   1.9051   H         1 RES1   0.0000
    63 H5A     -3.8798   4.2073  -3.6036   H         1 RES1   0.0000
    64 H6A     -4.0925   3.7317  -2.2806   H         1 RES1   0.0000
    65 H7A     -3.0795   4.3534  -2.4543   H         1 RES1   0.0000
    66 O2B     -0.9034  -3.5515  -4.7559   O.2       1 RES1   0.0000
    67 C4B     -1.7693  -4.9150  -3.0165   C.3       1 RES1   0.0000
    68 O2I     -3.5274  -0.9934   4.7559   O.2       1 RES1   0.0000
    69 C4I     -5.1412  -0.9252   3.0165   C.3       1 RES1   0.0000
    70 O2J      2.6240  -2.5581   4.7559   O.2       1 RES1   0.0000
    71 C4J      3.3719  -3.9898   3.0165   C.3       1 RES1   0.0000
    72 O2K      0.9034   3.5515   4.7559   O.2       1 RES1   0.0000
    73 C4K      1.7693   4.9150   3.0165   C.3       1 RES1   0.0000
    74 H5B     -1.7037  -5.4637  -3.6036   H         1 RES1   0.0000
    75 H6B     -1.1855  -5.4101  -2.2806   H         1 RES1   0.0000
    76 H7B     -2.2304  -4.8436  -2.4543   H         1 RES1   0.0000
    77 H5I     -5.5835  -1.2564   3.6036   H         1 RES1   0.0000
    78 H6I     -5.2780  -1.6784   2.2806   H         1 RES1   0.0000
    79 H7I     -5.3099  -0.4902   2.4543   H         1 RES1   0.0000
    80 H5J      3.8798  -4.2073   3.6036   H         1 RES1   0.0000
    81 H6J      4.0925  -3.7317   2.2806   H         1 RES1   0.0000
    82 H7J      3.0795  -4.3534   2.4543   H         1 RES1   0.0000
    83 H5K      1.7037   5.4637   3.6036   H         1 RES1   0.0000
    84 H6K      1.1855   5.4101   2.2806   H         1 RES1   0.0000
    85 H7K      2.2304   4.8436   2.4543   H         1 RES1   0.0000
    86 O3      -2.4703   3.1555   0.3045   O.3       2 RES2   0.0000
    87 O4      -5.0681   1.9965   0.0769   O.3       3 RES3   0.0000
@<TRIPOS>BOND
     1     1     2    1
     2     2     4    1
     3     3     5    1
     4     4     5    1
     5     5    12    1
     6     6     7    2
     7     7     3   am
     8     8     7    1
     9     9     2    1
    10    10     3    1
    11    11     4    1
    12    13     8    1
    13    14     8    1
    14    15     8    1
    15    16     1    1
    16    17     1    1
    17    18     1    1
    18    19     1    1
    19    20     1    1
    20    21     4    1
    21    22     5    1
    22    23    16    1
    23    24    16    1
    24    25    17    1
    25    26    17    1
    26    27    18    1
    27    28    18    1
    28    29    19    1
    29    30    20    1
    30    31    20    1
    31    32    21    1
    32    33    21    1
    33    34    22    1
    34    35    22    1
    35    36    23    1
    36    37    23    1
    37    38    23    1
    38    39    25    1
    39    40    27    1
    40    41    27    1
    41    42    30    1
    42    43    32   am
    43    44    32    1
    44    45    34    1
    45    46    34    1
    46    47    36    1
    47    48    36    1
    48    49    37    1
    49    50    37    1
    50    51    40    1
    51    52    40    1
    52    53    43    2
    53    54    43    1
    54    55    45   am
    55    56    45    1
    56    57    47   am
    57    58    47    1
    58    59    49   am
    59    60    49    1
    60    61    51   am
    61    62    51    1
    62    63    54    1
    63    64    54    1
    64    65    54    1
    65    66    55    2
    66    67    55    1
    67    68    57    2
    68    69    57    1
    69    70    59    2
    70    71    59    1
    71    72    61    2
    72    73    61    1
    73    74    67    1
    74    75    67    1
    75    76    67    1
    76    77    69    1
    77    78    69    1
    78    79    69    1
    79    80    71    1
    80    81    71    1
    81    82    71    1
    82    83    73    1
    83    84    73    1
    84    85    73    1
    85    19    22    1
    86    21    25    1
    87    25    34    1
    88    27    37    1
    89    30    36    1
    90    30    40    1
@<TRIPOS>SUBSTRUCTURE
     1 RES1        1 GROUP             0 ****  ****    0  
     2 RES2       86 GROUP             0 ****  ****    0  
     3 RES3       87 GROUP             0 ****  ****    0  
@<TRIPOS>CRYSIN
   18.7430   18.7430    9.9850   90.0000   90.0000  120.0000   233     1
