@<TRIPOS>MOLECULE
YOMVAX
    72    71     7     0     0
SMALL
USER_CHARGES
****
Generated from the CSD

@<TRIPOS>ATOM
     1 Fe1      1.1377   4.1295   3.3851   Fe        1 RES1   0.0000
     2 O1       1.9950   5.7203   4.1549   O.3       1 RES1   0.0000
     3 O2       0.6051   5.1138   1.7597   O.3       1 RES1   0.0000
     4 O3       2.8118   3.5372   2.5690   O.3       1 RES1   0.0000
     5 O4       1.0694   0.1944   4.1780   O.3       1 RES1   0.0000
     6 O5       0.0151   3.8096   7.1625   O.3       1 RES1   0.0000
     7 O6      -2.5986   3.1583   3.1583   O.3       1 RES1   0.0000
     8 N1       0.9405   7.8344   2.5731   N.4       1 RES1   1.0000
     9 N2       2.3735   4.0062  -0.1738   N.4       1 RES1   1.0000
    10 N3       4.7239   5.0709   4.0056   N.4       1 RES1   1.0000
    11 N4       0.0774   2.3864   2.6953   N.3       1 RES1   0.0000
    12 N5       1.5978   2.9091   5.1244   N.3       1 RES1   0.0000
    13 N6      -0.6350   4.6106   4.5501   N.3       1 RES1   0.0000
    14 C1       2.8381   6.4739   3.3267   C.3       1 RES1   0.0000
    15 C2       2.1018   7.0259   2.1006   C.3       1 RES1   0.0000
    16 C3       1.6006   5.9181   1.1718   C.3       1 RES1   0.0000
    17 C4       2.8223   5.1181   0.7142   C.3       1 RES1   0.0000
    18 C5       3.5853   4.4978   1.9023   C.3       1 RES1   0.0000
    19 C6       4.0228   5.6373   2.8188   C.3       1 RES1   0.0000
    20 C7      -0.7780   1.6146   3.6227   C.3       1 RES1   0.0000
    21 C8       0.0302   0.9998   4.7565   C.3       1 RES1   0.0000
    22 C9       0.5843   2.0275   5.7368   C.3       1 RES1   0.0000
    23 C10     -0.5663   2.8517   6.2989   C.3       1 RES1   0.0000
    24 C11     -1.4037   3.5260   5.2045   C.3       1 RES1   0.0000
    25 C12     -1.8917   2.4879   4.2106   C.3       1 RES1   0.0000
    26 H1       2.0923   0.2152   4.6981   H         1 RES1   0.0000
    27 H2      -0.4178   3.9620   7.8007   H         1 RES1   0.0000
    28 H3      -3.1977   2.6049   2.8066   H         1 RES1   0.0000
    29 H4       1.1037   8.5125   3.0660   H         1 RES1   0.0000
    30 H5       0.3548   7.3803   3.0130   H         1 RES1   0.0000
    31 H6       0.5023   8.1337   1.7978   H         1 RES1   0.0000
    32 H7       1.5709   4.3131  -0.8880   H         1 RES1   0.0000
    33 H8       1.9865   3.4235   0.2376   H         1 RES1   0.0000
    34 H9       3.0628   3.4969  -0.5716   H         1 RES1   0.0000
    35 H10      4.1043   4.4300   4.4985   H         1 RES1   0.0000
    36 H11      5.3532   4.5248   3.7299   H         1 RES1   0.0000
    37 H12      4.9801   5.7569   4.6560   H         1 RES1   0.0000
    38 H13      0.6084   1.9068   2.3952   H         1 RES1   0.0000
    39 H14     -0.4104   2.6091   1.9390   H         1 RES1   0.0000
    40 H15      2.3924   2.3835   4.9140   H         1 RES1   0.0000
    41 H16      1.7750   3.3881   5.6363   H         1 RES1   0.0000
    42 H17     -0.4393   5.1434   5.1475   H         1 RES1   0.0000
    43 H18     -1.2109   5.0880   4.0382   H         1 RES1   0.0000
    44 H19      3.2260   7.2459   3.8386   H         1 RES1   0.0000
    45 H20      2.6480   7.5459   1.5099   H         1 RES1   0.0000
    46 H21      1.3242   6.3418   0.3965   H         1 RES1   0.0000
    47 H22      3.4469   5.7564   0.1860   H         1 RES1   0.0000
    48 H23      4.3598   4.1079   1.5248   H         1 RES1   0.0000
    49 H24      4.6492   6.2327   2.2716   H         1 RES1   0.0000
    50 H25     -1.1737   0.8215   3.1447   H         1 RES1   0.0000
    51 H26     -0.6489   0.4288   5.3254   H         1 RES1   0.0000
    52 H27      0.9488   1.5450   6.4904   H         1 RES1   0.0000
    53 H28     -1.2329   2.2041   6.7959   H         1 RES1   0.0000
    54 H29     -2.1662   3.9130   5.6716   H         1 RES1   0.0000
    55 H30     -2.5647   1.8533   4.7116   H         1 RES1   0.0000
    56 N7       5.7855   7.0346   6.6927   N.pl3     2 RES2   0.0000
    57 O7       5.0605   7.3070   5.7069   O.2       2 RES2   0.0000
    58 O8       6.5236   6.0469   6.6493   O.3       2 RES2  -1.0000
    59 O9       5.7465   7.7418   7.7165   O.2       2 RES2   0.0000
    60 N8       3.3933   2.3999  10.2421   N.pl3     3 RES3   0.0000
    61 O10      4.4612   1.8643  10.6548   O.2       3 RES3   0.0000
    62 O11      3.1408   3.5654  10.6100   O.3       3 RES3  -1.0000
    63 O12      2.6320   1.7895   9.5048   O.2       3 RES3   0.0000
    64 N9      -0.9289   9.4349  -0.1100   N.pl3     4 RES4   0.0000
    65 O13     -0.4393   8.3491   0.2485   O.2       4 RES4   0.0000
    66 O14     -1.2823   9.5542  -1.2804   O.3       4 RES4  -1.0000
    67 O15     -0.9828  10.3540   0.6721   O.2       4 RES4   0.0000
    68 O16      4.9716   2.9207  13.2116   O.3       5 RES5   0.0000
    69 H31      4.8902   2.3840  12.4784   H         5 RES5   0.0000
    70 H32      5.0157   2.3885  13.9041   H         5 RES5   0.0000
    71 O17      4.7836  -0.9050  11.1491   O.3       6 RES6   0.0000
    72 O18      6.2597   0.4949   7.8441   O.3       7 RES7   0.0000
@<TRIPOS>BOND
     1     1     2    1
     2     2    14    1
     3     3     1    1
     4     4     1    1
     5     5    21    1
     6     6    23    1
     7     7    25    1
     8     8    15    1
     9     9    17    1
    10    10    19    1
    11    11     1    1
    12    12     1    1
    13    13     1    1
    14    14    15    1
    15    15    16    1
    16    16     3    1
    17    17    16    1
    18    18     4    1
    19    19    14    1
    20    20    11    1
    21    21    20    1
    22    22    12    1
    23    23    22    1
    24    24    13    1
    25    25    20    1
    26    26     5    1
    27    27     6    1
    28    28     7    1
    29    29     8    1
    30    30     8    1
    31    31     8    1
    32    32     9    1
    33    33     9    1
    34    34     9    1
    35    35    10    1
    36    36    10    1
    37    37    10    1
    38    38    11    1
    39    39    11    1
    40    40    12    1
    41    41    12    1
    42    42    13    1
    43    43    13    1
    44    44    14    1
    45    45    15    1
    46    46    16    1
    47    47    17    1
    48    48    18    1
    49    49    19    1
    50    50    20    1
    51    51    21    1
    52    52    22    1
    53    53    23    1
    54    54    24    1
    55    55    25    1
    56    17    18    1
    57    18    19    1
    58    21    22    1
    59    23    24    1
    60    24    25    1
    61    56    57    2
    62    58    56    1
    63    59    56    2
    64    60    61    2
    65    62    60    1
    66    63    60    2
    67    64    65    2
    68    66    64    1
    69    67    64    2
    70    68    69    1
    71    70    68    1
@<TRIPOS>SUBSTRUCTURE
     1 RES1        1 GROUP             0 ****  ****    0  
     2 RES2       56 GROUP             0 ****  ****    0  
     3 RES3       60 GROUP             0 ****  ****    0  
     4 RES4       64 GROUP             0 ****  ****    0  
     5 RES5       68 GROUP             0 ****  ****    0  
     6 RES6       71 GROUP             0 ****  ****    0  
     7 RES7       72 GROUP             0 ****  ****    0  
@<TRIPOS>CRYSIN
    9.3080    9.8310   13.5930   87.4300   89.0700   85.4000     2     1
