@<TRIPOS>MOLECULE
YOPPOK
   118   128     2     0     0
SMALL
NO_CHARGES
****
Generated from the CSD

@<TRIPOS>ATOM
     1 Fe1      1.8960   5.0632   7.7864   Fe        1 RES1   0.0000
     2 Se1     -0.0095   7.1550  11.7563   Se        1 RES1   0.0000
     3 F1       3.6365   3.8293  16.5981   F         1 RES1   0.0000
     4 F2       3.1718   4.7022  19.1173   F         1 RES1   0.0000
     5 F3       1.2733   6.5718  19.5742   F         1 RES1   0.0000
     6 F4      -0.1427   7.6009  17.5035   F         1 RES1   0.0000
     7 F5       0.2986   6.7314  14.9986   F         1 RES1   0.0000
     8 F6       6.6465   9.2732  13.3111   F         1 RES1   0.0000
     9 F7       7.9124  10.7858  11.4502   F         1 RES1   0.0000
    10 F8       6.5748  11.6105   9.2468   F         1 RES1   0.0000
    11 F9       3.9979  10.8769   8.8587   F         1 RES1   0.0000
    12 F10      2.7363   9.3575  10.7041   F         1 RES1   0.0000
    13 O1       2.1751   4.7262  14.4950   O.3       1 RES1   0.0000
    14 O2       4.0422   8.5953  13.0439   O.3       1 RES1   0.0000
    15 N1       1.2020   5.8789   9.3921   N.2       1 RES1   0.0000
    16 N2       2.6061   3.5176   8.8025   N.ar      1 RES1   0.0000
    17 N3       3.6772   5.8859   8.0455   N.ar      1 RES1   0.0000
    18 N4       3.7303   5.0030  10.2258   N.pl3     1 RES1   0.0000
    19 N5       2.9177   4.8216  12.3954   N.ar      1 RES1   0.0000
    20 N6       3.9120   6.8311  11.5981   N.ar      1 RES1   0.0000
    21 N7       3.1202   6.7137  13.8389   N.ar      1 RES1   0.0000
    22 C1       0.7136   6.3821  10.3190   C.1       1 RES1   0.0000
    23 C2       2.3649   2.2497   8.3928   C.ar      1 RES1   0.0000
    24 H1       1.8930   2.1170   7.5793   H         1 RES1   0.0000
    25 C3       2.7735   1.1445   9.1029   C.ar      1 RES1   0.0000
    26 H2       2.5808   0.2699   8.7861   H         1 RES1   0.0000
    27 C4       3.4689   1.3243  10.2880   C.ar      1 RES1   0.0000
    28 H3       3.7324   0.5776  10.8122   H         1 RES1   0.0000
    29 C5       3.7727   2.6102  10.6922   C.ar      1 RES1   0.0000
    30 H4       4.2684   2.7639  11.4880   H         1 RES1   0.0000
    31 C6       3.3390   3.6713   9.9130   C.ar      1 RES1   0.0000
    32 C7       4.2900   6.5337   7.0267   C.ar      1 RES1   0.0000
    33 H5       3.8375   6.6009   6.1933   H         1 RES1   0.0000
    34 C8       5.5391   7.0996   7.1438   C.ar      1 RES1   0.0000
    35 H6       5.9267   7.5693   6.4144   H         1 RES1   0.0000
    36 C9       6.2252   6.9722   8.3457   C.ar      1 RES1   0.0000
    37 H7       7.0857   7.3589   8.4529   H         1 RES1   0.0000
    38 C10      5.6341   6.2749   9.3823   C.ar      1 RES1   0.0000
    39 H8       6.0900   6.1499  10.2064   H         1 RES1   0.0000
    40 C11      4.3574   5.7599   9.1915   C.ar      1 RES1   0.0000
    41 C12      3.5107   5.5586  11.4520   C.ar      1 RES1   0.0000
    42 C13      2.7664   5.4779  13.5315   C.ar      1 RES1   0.0000
    43 C14      3.6771   7.3128  12.7929   C.ar      1 RES1   0.0000
    44 C15      1.9936   5.2830  15.7442   C.ar      1 RES1   0.0000
    45 C16      2.7023   4.7558  16.8109   C.ar      1 RES1   0.0000
    46 C17      2.4541   5.1817  18.0985   C.ar      1 RES1   0.0000
    47 C18      1.4999   6.1399  18.3324   C.ar      1 RES1   0.0000
    48 C19      0.7902   6.6738  17.2826   C.ar      1 RES1   0.0000
    49 C20      1.0325   6.2408  15.9960   C.ar      1 RES1   0.0000
    50 C21      4.6823   9.2729  12.0233   C.ar      1 RES1   0.0000
    51 C22      5.9959   9.6444  12.2075   C.ar      1 RES1   0.0000
    52 C23      6.6442  10.4247  11.2652   C.ar      1 RES1   0.0000
    53 C24      5.9684  10.8312  10.1463   C.ar      1 RES1   0.0000
    54 C25      4.6570  10.4611   9.9496   C.ar      1 RES1   0.0000
    55 C26      4.0149   9.6831  10.8891   C.ar      1 RES1   0.0000
    56 Se1A     3.8015   2.9714   3.8165   Se        1 RES1   0.0000
    57 F1A      0.1555   6.2971  -1.0253   F         1 RES1   0.0000
    58 F2A      0.6202   5.4242  -3.5445   F         1 RES1   0.0000
    59 F3A      2.5187   3.5545  -4.0014   F         1 RES1   0.0000
    60 F4A      3.9347   2.5254  -1.9307   F         1 RES1   0.0000
    61 F5A      3.4934   3.3950   0.5742   F         1 RES1   0.0000
    62 F6A     -2.8545   0.8532   2.2616   F         1 RES1   0.0000
    63 F7A     -4.1205  -0.6595   4.1226   F         1 RES1   0.0000
    64 F8A     -2.7828  -1.4842   6.3260   F         1 RES1   0.0000
    65 F9A     -0.2059  -0.7505   6.7140   F         1 RES1   0.0000
    66 F10A     1.0557   0.7689   4.8687   F         1 RES1   0.0000
    67 O1A      1.6168   5.4001   1.0778   O.3       1 RES1   0.0000
    68 O2A     -0.2502   1.5311   2.5289   O.3       1 RES1   0.0000
    69 N1A      2.5900   4.2475   6.1807   N.2       1 RES1   0.0000
    70 N2A      1.1858   6.6088   6.7703   N.ar      1 RES1   0.0000
    71 N3A      0.1148   4.2405   7.5272   N.ar      1 RES1   0.0000
    72 N4A      0.0617   5.1234   5.3469   N.pl3     1 RES1   0.0000
    73 N5A      0.8742   5.3048   3.1773   N.ar      1 RES1   0.0000
    74 N6A     -0.1201   3.2953   3.9746   N.ar      1 RES1   0.0000
    75 N7A      0.6718   3.4127   1.7339   N.ar      1 RES1   0.0000
    76 C1A      3.0783   3.7443   5.2538   C.1       1 RES1   0.0000
    77 C2A      1.4271   7.8767   7.1800   C.ar      1 RES1   0.0000
    78 H1A      1.8990   8.0093   7.9935   H         1 RES1   0.0000
    79 C3A      1.0185   8.9819   6.4699   C.ar      1 RES1   0.0000
    80 H2A      1.2112   9.8565   6.7866   H         1 RES1   0.0000
    81 C4A      0.3231   8.8021   5.2848   C.ar      1 RES1   0.0000
    82 H3A      0.0596   9.5488   4.7606   H         1 RES1   0.0000
    83 C5A      0.0193   7.5161   4.8805   C.ar      1 RES1   0.0000
    84 H4A     -0.4765   7.3625   4.0847   H         1 RES1   0.0000
    85 C6A      0.4529   6.4551   5.6598   C.ar      1 RES1   0.0000
    86 C7A     -0.4980   3.5927   8.5460   C.ar      1 RES1   0.0000
    87 H5A     -0.0455   3.5255   9.3795   H         1 RES1   0.0000
    88 C8A     -1.7471   3.0267   8.4289   C.ar      1 RES1   0.0000
    89 H6A     -2.1347   2.5571   9.1583   H         1 RES1   0.0000
    90 C9A     -2.4332   3.1541   7.2270   C.ar      1 RES1   0.0000
    91 H7A     -3.2937   2.7674   7.1199   H         1 RES1   0.0000
    92 C10A    -1.8421   3.8514   6.1905   C.ar      1 RES1   0.0000
    93 H8A     -2.2980   3.9764   5.3664   H         1 RES1   0.0000
    94 C11A    -0.5654   4.3665   6.3812   C.ar      1 RES1   0.0000
    95 C12A     0.2813   4.5678   4.1207   C.ar      1 RES1   0.0000
    96 C13A     1.0256   4.6485   2.0413   C.ar      1 RES1   0.0000
    97 C14A     0.1149   2.8135   2.7799   C.ar      1 RES1   0.0000
    98 C15A     1.7984   4.8434  -0.1715   C.ar      1 RES1   0.0000
    99 C16A     1.0897   5.3705  -1.2382   C.ar      1 RES1   0.0000
   100 C17A     1.3378   4.9447  -2.5257   C.ar      1 RES1   0.0000
   101 C18A     2.2921   3.9865  -2.7596   C.ar      1 RES1   0.0000
   102 C19A     3.0018   3.4526  -1.7099   C.ar      1 RES1   0.0000
   103 C20A     2.7595   3.8855  -0.4233   C.ar      1 RES1   0.0000
   104 C21A    -0.8903   0.8535   3.5495   C.ar      1 RES1   0.0000
   105 C22A    -2.2040   0.4820   3.3653   C.ar      1 RES1   0.0000
   106 C23A    -2.8522  -0.2983   4.3076   C.ar      1 RES1   0.0000
   107 C24A    -2.1764  -0.7048   5.4265   C.ar      1 RES1   0.0000
   108 C25A    -0.8651  -0.3347   5.6232   C.ar      1 RES1   0.0000
   109 C26A    -0.2229   0.4433   4.6837   C.ar      1 RES1   0.0000
   110 C27      2.9796  11.8168  13.8904   C.1       2 RES2   0.0000
   111 N8       3.6640  12.1353  13.0356   N.1       2 RES2   0.0000
   112 C28      1.4042  10.0761  14.6899   C.3       2 RES2   0.0000
   113 H9       0.9158  10.1367  13.8426   H         2 RES2   0.0000
   114 H10      0.7759   9.8694  15.4139   H         2 RES2   0.0000
   115 H11      2.0780   9.3680  14.6290   H         2 RES2   0.0000
   116 C29      2.0829  11.3946  14.9743   C.3       2 RES2   0.0000
   117 H12      1.3927  12.0906  15.1118   H         2 RES2   0.0000
   118 H13      2.6051  11.3145  15.8126   H         2 RES2   0.0000
@<TRIPOS>BOND
     1     1    15    1
     2     2    22    2
     3     3    45    1
     4     4    46    1
     5     5    47    1
     6     6    48    1
     7     7    49    1
     8     8    51    1
     9     9    52    1
    10    10    53    1
    11    11    54    1
    12    12    55    1
    13    13    42    1
    14    14    43    1
    15    15    22    2
    16    16     1    1
    17    17     1    1
    18    18    31    1
    19    19    41   ar
    20    20    41   ar
    21    21    42   ar
    22    23    16   ar
    23    24    23    1
    24    25    23   ar
    25    26    25    1
    26    27    25   ar
    27    28    27    1
    28    29    27   ar
    29    30    29    1
    30    31    16   ar
    31    32    17   ar
    32    33    32    1
    33    34    32   ar
    34    35    34    1
    35    36    34   ar
    36    37    36    1
    37    38    36   ar
    38    39    38    1
    39    40    17   ar
    40    41    18    1
    41    42    19   ar
    42    43    20   ar
    43    44    13    1
    44    45    44   ar
    45    46    45   ar
    46    47    46   ar
    47    48    47   ar
    48    49    44   ar
    49    50    14    1
    50    51    50   ar
    51    52    51   ar
    52    53    52   ar
    53    54    53   ar
    54    55    50   ar
    55    56    76    2
    56    57    99    1
    57    58   100    1
    58    59   101    1
    59    60   102    1
    60    61   103    1
    61    62   105    1
    62    63   106    1
    63    64   107    1
    64    65   108    1
    65    66   109    1
    66    67    96    1
    67    68    97    1
    68    69     1    1
    69    70     1    1
    70    71     1    1
    71    72    85    1
    72    73    95   ar
    73    74    95   ar
    74    75    96   ar
    75    76    69    2
    76    77    70   ar
    77    78    77    1
    78    79    77   ar
    79    80    79    1
    80    81    79   ar
    81    82    81    1
    82    83    81   ar
    83    84    83    1
    84    85    70   ar
    85    86    71   ar
    86    87    86    1
    87    88    86   ar
    88    89    88    1
    89    90    88   ar
    90    91    90    1
    91    92    90   ar
    92    93    92    1
    93    94    71   ar
    94    95    72    1
    95    96    73   ar
    96    97    74   ar
    97    98    67    1
    98    99    98   ar
    99   100    99   ar
   100   101   100   ar
   101   102   101   ar
   102   103    98   ar
   103   104    68    1
   104   105   104   ar
   105   106   105   ar
   106   107   106   ar
   107   108   107   ar
   108   109   104   ar
   109    18    40    1
   110    21    43   ar
   111    29    31   ar
   112    38    40   ar
   113    48    49   ar
   114    54    55   ar
   115    72    94    1
   116    75    97   ar
   117    83    85   ar
   118    92    94   ar
   119   102   103   ar
   120   108   109   ar
   121   110   111    3
   122   112   113    1
   123   114   112    1
   124   115   112    1
   125   116   110    1
   126   117   116    1
   127   118   116    1
   128   112   116    1
@<TRIPOS>SUBSTRUCTURE
     1 RES1        1 GROUP             0 ****  ****    0  
     2 RES2      110 GROUP             0 ****  ****    0  
@<TRIPOS>CRYSIN
    8.4681   11.3610   15.8754   92.2530  100.4710   99.0700     2     1
