@<TRIPOS>MOLECULE
YOPPOK02
   118   128     2     0     0
SMALL
NO_CHARGES
****
Generated from the CSD

@<TRIPOS>ATOM
     1 Fe1      1.7911   4.8943   7.8030   Fe        1 RES1   0.0000
     2 Se1     -0.1947   6.8421  11.8099   Se        1 RES1   0.0000
     3 F1       3.6105   3.4225  16.5237   F         1 RES1   0.0000
     4 F2       3.1981   4.1958  19.0706   F         1 RES1   0.0000
     5 F3       1.2910   6.0112  19.6330   F         1 RES1   0.0000
     6 F4      -0.1619   7.0899  17.6551   F         1 RES1   0.0000
     7 F5       0.2177   6.3243  15.1092   F         1 RES1   0.0000
     8 F6       6.5160   8.9644  13.3173   F         1 RES1   0.0000
     9 F7       7.7124  10.4951  11.4392   F         1 RES1   0.0000
    10 F8       6.2958  11.3568   9.2997   F         1 RES1   0.0000
    11 F9       3.7249  10.6423   9.0047   F         1 RES1   0.0000
    12 F10      2.5341   9.1130  10.8790   F         1 RES1   0.0000
    13 O1       2.0875   4.3657  14.4862   O.3       1 RES1   0.0000
    14 O2       3.9113   8.2835  13.1308   O.3       1 RES1   0.0000
    15 N1       1.0844   5.6630   9.4479   N.2       1 RES1   0.0000
    16 N2       2.5278   3.3037   8.7889   N.ar      1 RES1   0.0000
    17 N3       3.5966   5.7211   8.0913   N.ar      1 RES1   0.0000
    18 N4       3.6453   4.7607  10.2490   N.pl3     1 RES1   0.0000
    19 N5       2.8163   4.5300  12.3897   N.ar      1 RES1   0.0000
    20 N6       3.7964   6.5542  11.6501   N.ar      1 RES1   0.0000
    21 N7       3.0244   6.3762  13.8769   N.ar      1 RES1   0.0000
    22 C1       0.5625   6.1245  10.3655   C.1       1 RES1   0.0000
    23 C2       2.2875   2.0464   8.3508   C.ar      1 RES1   0.0000
    24 H1       1.8196   1.9356   7.5549   H         1 RES1   0.0000
    25 C3       2.6976   0.9438   9.0172   C.ar      1 RES1   0.0000
    26 H2       2.5057   0.0963   8.6848   H         1 RES1   0.0000
    27 C4       3.3958   1.0891  10.1830   C.ar      1 RES1   0.0000
    28 H3       3.6613   0.3404  10.6667   H         1 RES1   0.0000
    29 C5       3.7078   2.3692  10.6418   C.ar      1 RES1   0.0000
    30 H4       4.1929   2.5006  11.4236   H         1 RES1   0.0000
    31 C6       3.2669   3.4275   9.8849   C.ar      1 RES1   0.0000
    32 C7       4.2108   6.4043   7.1148   C.ar      1 RES1   0.0000
    33 H5       3.7675   6.5116   6.3048   H         1 RES1   0.0000
    34 C8       5.4677   6.9554   7.2537   C.ar      1 RES1   0.0000
    35 H6       5.8491   7.4431   6.5608   H         1 RES1   0.0000
    36 C9       6.1415   6.7712   8.4304   C.ar      1 RES1   0.0000
    37 H7       6.9888   7.1357   8.5490   H         1 RES1   0.0000
    38 C10      5.5562   6.0404   9.4323   C.ar      1 RES1   0.0000
    39 H8       6.0062   5.8823  10.2313   H         1 RES1   0.0000
    40 C11      4.2862   5.5483   9.2310   C.ar      1 RES1   0.0000
    41 C12      3.4103   5.2877  11.4720   C.ar      1 RES1   0.0000
    42 C13      2.6770   5.1510  13.5398   C.ar      1 RES1   0.0000
    43 C14      3.5648   6.9948  12.8438   C.ar      1 RES1   0.0000
    44 C15      1.9413   4.8820  15.7621   C.ar      1 RES1   0.0000
    45 C16      2.6741   4.3290  16.7812   C.ar      1 RES1   0.0000
    46 C17      2.4490   4.6961  18.0827   C.ar      1 RES1   0.0000
    47 C18      1.4988   5.6176  18.3730   C.ar      1 RES1   0.0000
    48 C19      0.7661   6.1750  17.3664   C.ar      1 RES1   0.0000
    49 C20      0.9766   5.8059  16.0742   C.ar      1 RES1   0.0000
    50 C21      4.5128   8.9910  12.1009   C.ar      1 RES1   0.0000
    51 C22      5.8222   9.3632  12.2461   C.ar      1 RES1   0.0000
    52 C23      6.4385  10.1554  11.2972   C.ar      1 RES1   0.0000
    53 C24      5.7115  10.5672  10.2204   C.ar      1 RES1   0.0000
    54 C25      4.4176  10.1996  10.0628   C.ar      1 RES1   0.0000
    55 C26      3.8124   9.4233  11.0101   C.ar      1 RES1   0.0000
    56 Se1A     3.7770   2.9464   3.7962   Se        1 RES1   0.0000
    57 F1A     -0.0282   6.3661  -0.9176   F         1 RES1   0.0000
    58 F2A      0.3842   5.5927  -3.4645   F         1 RES1   0.0000
    59 F3A      2.2913   3.7773  -4.0270   F         1 RES1   0.0000
    60 F4A      3.7442   2.6987  -2.0491   F         1 RES1   0.0000
    61 F5A      3.3645   3.4643   0.4969   F         1 RES1   0.0000
    62 F6A     -2.9337   0.8242   2.2888   F         1 RES1   0.0000
    63 F7A     -4.1302  -0.7066   4.1668   F         1 RES1   0.0000
    64 F8A     -2.7135  -1.5682   6.3064   F         1 RES1   0.0000
    65 F9A     -0.1427  -0.8537   6.6014   F         1 RES1   0.0000
    66 F10A     1.0481   0.6755   4.7271   F         1 RES1   0.0000
    67 O1A      1.4948   5.4229   1.1199   O.3       1 RES1   0.0000
    68 O2A     -0.3290   1.5050   2.4753   O.3       1 RES1   0.0000
    69 N1A      2.4979   4.1256   6.1582   N.2       1 RES1   0.0000
    70 N2A      1.0544   6.4849   6.8172   N.ar      1 RES1   0.0000
    71 N3A     -0.0143   4.0674   7.5148   N.ar      1 RES1   0.0000
    72 N4A     -0.0630   5.0279   5.3571   N.pl3     1 RES1   0.0000
    73 N5A      0.7659   5.2585   3.2164   N.ar      1 RES1   0.0000
    74 N6A     -0.2141   3.2344   3.9560   N.ar      1 RES1   0.0000
    75 N7A      0.5579   3.4124   1.7292   N.ar      1 RES1   0.0000
    76 C1A      3.0197   3.6641   5.2405   C.1       1 RES1   0.0000
    77 C2A      1.2947   7.7421   7.2553   C.ar      1 RES1   0.0000
    78 H1A      1.7626   7.8530   8.0512   H         1 RES1   0.0000
    79 C3A      0.8847   8.8448   6.5889   C.ar      1 RES1   0.0000
    80 H2A      1.0766   9.6923   6.9213   H         1 RES1   0.0000
    81 C4A      0.1865   8.6995   5.4231   C.ar      1 RES1   0.0000
    82 H3A     -0.0790   9.4482   4.9393   H         1 RES1   0.0000
    83 C5A     -0.1256   7.4194   4.9643   C.ar      1 RES1   0.0000
    84 H4A     -0.6106   7.2880   4.1824   H         1 RES1   0.0000
    85 C6A      0.3154   6.3611   5.7212   C.ar      1 RES1   0.0000
    86 C7A     -0.6285   3.3842   8.4913   C.ar      1 RES1   0.0000
    87 H5A     -0.1852   3.2770   9.3012   H         1 RES1   0.0000
    88 C8A     -1.8854   2.8331   8.3524   C.ar      1 RES1   0.0000
    89 H6A     -2.2668   2.3454   9.0453   H         1 RES1   0.0000
    90 C9A     -2.5592   3.0174   7.1757   C.ar      1 RES1   0.0000
    91 H7A     -3.4065   2.6529   7.0571   H         1 RES1   0.0000
    92 C10A    -1.9739   3.7482   6.1738   C.ar      1 RES1   0.0000
    93 H8A     -2.4239   3.9063   5.3747   H         1 RES1   0.0000
    94 C11A    -0.7039   4.2402   6.3751   C.ar      1 RES1   0.0000
    95 C12A     0.1719   4.5008   4.1340   C.ar      1 RES1   0.0000
    96 C13A     0.9053   4.6376   2.0662   C.ar      1 RES1   0.0000
    97 C14A     0.0175   2.7938   2.7623   C.ar      1 RES1   0.0000
    98 C15A     1.6409   4.9066  -0.1561   C.ar      1 RES1   0.0000
    99 C16A     0.9082   5.4595  -1.1751   C.ar      1 RES1   0.0000
   100 C17A     1.1332   5.0925  -2.4767   C.ar      1 RES1   0.0000
   101 C18A     2.0835   4.1709  -2.7670   C.ar      1 RES1   0.0000
   102 C19A     2.8162   3.6136  -1.7604   C.ar      1 RES1   0.0000
   103 C20A     2.6056   3.9827  -0.4682   C.ar      1 RES1   0.0000
   104 C21A    -0.9305   0.7975   3.5051   C.ar      1 RES1   0.0000
   105 C22A    -2.2399   0.4254   3.3600   C.ar      1 RES1   0.0000
   106 C23A    -2.8563  -0.3669   4.3088   C.ar      1 RES1   0.0000
   107 C24A    -2.1292  -0.7786   5.3857   C.ar      1 RES1   0.0000
   108 C25A    -0.8353  -0.4111   5.5433   C.ar      1 RES1   0.0000
   109 C26A    -0.2301   0.3653   4.5960   C.ar      1 RES1   0.0000
   110 C27      2.5687  11.5519  13.8566   C.1       2 RES2   0.0000
   111 N8       3.2587  11.9061  13.0498   N.1       2 RES2   0.0000
   112 C28      1.6399  11.1229  14.8897   C.3       2 RES2   0.0000
   113 H9       2.0810  11.1812  15.7512   H         2 RES2   0.0000
   114 H10      0.8830  11.7289  14.9038   H         2 RES2   0.0000
   115 C29      1.1549   9.7706  14.7009   C.3       2 RES2   0.0000
   116 H11      0.7466   9.6947  13.8348   H         2 RES2   0.0000
   117 H12      0.5077   9.5653  15.3798   H         2 RES2   0.0000
   118 H13      1.8893   9.1550  14.7633   H         2 RES2   0.0000
@<TRIPOS>BOND
     1     1    15    1
     2     2    22    2
     3     3    45    1
     4     4    46    1
     5     5    47    1
     6     6    48    1
     7     7    49    1
     8     8    51    1
     9     9    52    1
    10    10    53    1
    11    11    54    1
    12    12    55    1
    13    13    42    1
    14    14    43    1
    15    15    22    2
    16    16     1    1
    17    17     1    1
    18    18    31    1
    19    19    41   ar
    20    20    41   ar
    21    21    42   ar
    22    23    16   ar
    23    24    23    1
    24    25    23   ar
    25    26    25    1
    26    27    25   ar
    27    28    27    1
    28    29    27   ar
    29    30    29    1
    30    31    16   ar
    31    32    17   ar
    32    33    32    1
    33    34    32   ar
    34    35    34    1
    35    36    34   ar
    36    37    36    1
    37    38    36   ar
    38    39    38    1
    39    40    17   ar
    40    41    18    1
    41    42    19   ar
    42    43    20   ar
    43    44    13    1
    44    45    44   ar
    45    46    45   ar
    46    47    46   ar
    47    48    47   ar
    48    49    44   ar
    49    50    14    1
    50    51    50   ar
    51    52    51   ar
    52    53    52   ar
    53    54    53   ar
    54    55    50   ar
    55    56    76    2
    56    57    99    1
    57    58   100    1
    58    59   101    1
    59    60   102    1
    60    61   103    1
    61    62   105    1
    62    63   106    1
    63    64   107    1
    64    65   108    1
    65    66   109    1
    66    67    96    1
    67    68    97    1
    68    69     1    1
    69    70     1    1
    70    71     1    1
    71    72    85    1
    72    73    95   ar
    73    74    95   ar
    74    75    96   ar
    75    76    69    2
    76    77    70   ar
    77    78    77    1
    78    79    77   ar
    79    80    79    1
    80    81    79   ar
    81    82    81    1
    82    83    81   ar
    83    84    83    1
    84    85    70   ar
    85    86    71   ar
    86    87    86    1
    87    88    86   ar
    88    89    88    1
    89    90    88   ar
    90    91    90    1
    91    92    90   ar
    92    93    92    1
    93    94    71   ar
    94    95    72    1
    95    96    73   ar
    96    97    74   ar
    97    98    67    1
    98    99    98   ar
    99   100    99   ar
   100   101   100   ar
   101   102   101   ar
   102   103    98   ar
   103   104    68    1
   104   105   104   ar
   105   106   105   ar
   106   107   106   ar
   107   108   107   ar
   108   109   104   ar
   109    18    40    1
   110    21    43   ar
   111    29    31   ar
   112    38    40   ar
   113    48    49   ar
   114    54    55   ar
   115    72    94    1
   116    75    97   ar
   117    83    85   ar
   118    92    94   ar
   119   102   103   ar
   120   108   109   ar
   121   110   111    3
   122   112   110    1
   123   113   112    1
   124   114   112    1
   125   115   112    1
   126   116   115    1
   127   117   115    1
   128   118   115    1
@<TRIPOS>SUBSTRUCTURE
     1 RES1        1 GROUP             0 ****  ****    0  
     2 RES2      110 GROUP             0 ****  ****    0  
@<TRIPOS>CRYSIN
    8.6380   11.4900   15.9470   93.3480  100.5380  100.7300     2     1
