@<TRIPOS>MOLECULE
YOPPOK01
   118   128     2     0     0
SMALL
NO_CHARGES
****
Generated from the CSD

@<TRIPOS>ATOM
     1 Fe1      1.9087   4.9992   7.7826   Fe        1 RES1   0.0000
     2 Se1      0.0027   7.0421  11.7769   Se        1 RES1   0.0000
     3 F1       3.7041   3.6837  16.5893   F         1 RES1   0.0000
     4 F2       3.2418   4.5355  19.1182   F         1 RES1   0.0000
     5 F3       1.3452   6.3987  19.5943   F         1 RES1   0.0000
     6 F4      -0.0821   7.4328  17.5385   F         1 RES1   0.0000
     7 F5       0.3483   6.5857  15.0213   F         1 RES1   0.0000
     8 F6       6.6727   9.1605  13.2959   F         1 RES1   0.0000
     9 F7       7.9176  10.6674  11.4189   F         1 RES1   0.0000
    10 F8       6.5489  11.5045   9.2381   F         1 RES1   0.0000
    11 F9       3.9672  10.7919   8.8941   F         1 RES1   0.0000
    12 F10      2.7265   9.2695  10.7535   F         1 RES1   0.0000
    13 O1       2.2299   4.5905  14.4943   O.3       1 RES1   0.0000
    14 O2       4.0717   8.4814  13.0668   O.3       1 RES1   0.0000
    15 N1       1.2120   5.7921   9.4066   N.2       1 RES1   0.0000
    16 N2       2.6261   3.4388   8.7857   N.ar      1 RES1   0.0000
    17 N3       3.6987   5.8245   8.0539   N.ar      1 RES1   0.0000
    18 N4       3.7584   4.9107  10.2235   N.pl3     1 RES1   0.0000
    19 N5       2.9565   4.7103  12.3908   N.ar      1 RES1   0.0000
    20 N6       3.9371   6.7253  11.6091   N.ar      1 RES1   0.0000
    21 N7       3.1580   6.5881  13.8453   N.ar      1 RES1   0.0000
    22 C1       0.7278   6.2827  10.3290   C.1       1 RES1   0.0000
    23 C2       2.3805   2.1751   8.3694   C.ar      1 RES1   0.0000
    24 H1       1.9070   2.0493   7.5553   H         1 RES1   0.0000
    25 C3       2.7824   1.0669   9.0667   C.ar      1 RES1   0.0000
    26 H2       2.5780   0.1960   8.7461   H         1 RES1   0.0000
    27 C4       3.4897   1.2320  10.2450   C.ar      1 RES1   0.0000
    28 H3       3.7555   0.4784  10.7586   H         1 RES1   0.0000
    29 C5       3.8021   2.5115  10.6621   C.ar      1 RES1   0.0000
    30 H4       4.3084   2.6571  11.4528   H         1 RES1   0.0000
    31 C6       3.3561   3.5771   9.8916   C.ar      1 RES1   0.0000
    32 C7       4.3077   6.4885   7.0463   C.ar      1 RES1   0.0000
    33 H5       3.8529   6.5699   6.2167   H         1 RES1   0.0000
    34 C8       5.5614   7.0514   7.1677   C.ar      1 RES1   0.0000
    35 H6       5.9497   7.5336   6.4471   H         1 RES1   0.0000
    36 C9       6.2420   6.8999   8.3647   C.ar      1 RES1   0.0000
    37 H7       7.1042   7.2823   8.4783   H         1 RES1   0.0000
    38 C10      5.6542   6.1884   9.3904   C.ar      1 RES1   0.0000
    39 H8       6.1113   6.0513  10.2123   H         1 RES1   0.0000
    40 C11      4.3844   5.6788   9.1928   C.ar      1 RES1   0.0000
    41 C12      3.5406   5.4522  11.4497   C.ar      1 RES1   0.0000
    42 C13      2.8122   5.3544  13.5308   C.ar      1 RES1   0.0000
    43 C14      3.7067   7.1947  12.8086   C.ar      1 RES1   0.0000
    44 C15      2.0483   5.1429  15.7519   C.ar      1 RES1   0.0000
    45 C16      2.7649   4.6097  16.8135   C.ar      1 RES1   0.0000
    46 C17      2.5172   5.0280  18.1023   C.ar      1 RES1   0.0000
    47 C18      1.5767   5.9692  18.3466   C.ar      1 RES1   0.0000
    48 C19      0.8487   6.5064  17.3053   C.ar      1 RES1   0.0000
    49 C20      1.0879   6.0885  16.0119   C.ar      1 RES1   0.0000
    50 C21      4.6919   9.1740  12.0381   C.ar      1 RES1   0.0000
    51 C22      6.0047   9.5346  12.1984   C.ar      1 RES1   0.0000
    52 C23      6.6403  10.3139  11.2536   C.ar      1 RES1   0.0000
    53 C24      5.9565  10.7254  10.1531   C.ar      1 RES1   0.0000
    54 C25      4.6399  10.3656   9.9679   C.ar      1 RES1   0.0000
    55 C26      4.0074   9.5842  10.9252   C.ar      1 RES1   0.0000
    56 Se1A     3.8148   2.9562   3.7882   Se        1 RES1   0.0000
    57 F1A      0.1134   6.3146  -1.0242   F         1 RES1   0.0000
    58 F2A      0.5757   5.4628  -3.5531   F         1 RES1   0.0000
    59 F3A      2.4723   3.5996  -4.0292   F         1 RES1   0.0000
    60 F4A      3.8996   2.5655  -1.9733   F         1 RES1   0.0000
    61 F5A      3.4692   3.4126   0.5438   F         1 RES1   0.0000
    62 F6A     -2.8552   0.8378   2.2692   F         1 RES1   0.0000
    63 F7A     -4.1001  -0.6691   4.1462   F         1 RES1   0.0000
    64 F8A     -2.7314  -1.5062   6.3271   F         1 RES1   0.0000
    65 F9A     -0.1497  -0.7936   6.6711   F         1 RES1   0.0000
    66 F10A     1.0909   0.7288   4.8117   F         1 RES1   0.0000
    67 O1A      1.5875   5.4078   1.0709   O.3       1 RES1   0.0000
    68 O2A     -0.2542   1.5170   2.4984   O.3       1 RES1   0.0000
    69 N1A      2.6054   4.2062   6.1585   N.2       1 RES1   0.0000
    70 N2A      1.1914   6.5595   6.7794   N.ar      1 RES1   0.0000
    71 N3A      0.1188   4.1738   7.5113   N.ar      1 RES1   0.0000
    72 N4A      0.0590   5.0876   5.3416   N.pl3     1 RES1   0.0000
    73 N5A      0.8610   5.2880   3.1744   N.ar      1 RES1   0.0000
    74 N6A     -0.1197   3.2730   3.9560   N.ar      1 RES1   0.0000
    75 N7A      0.6594   3.4102   1.7198   N.ar      1 RES1   0.0000
    76 C1A      3.0897   3.7156   5.2361   C.1       1 RES1   0.0000
    77 C2A      1.4369   7.8232   7.1958   C.ar      1 RES1   0.0000
    78 H1A      1.9105   7.9490   8.0098   H         1 RES1   0.0000
    79 C3A      1.0350   8.9314   6.4984   C.ar      1 RES1   0.0000
    80 H2A      1.2395   9.8023   6.8191   H         1 RES1   0.0000
    81 C4A      0.3278   8.7663   5.3202   C.ar      1 RES1   0.0000
    82 H3A      0.0620   9.5199   4.8065   H         1 RES1   0.0000
    83 C5A      0.0153   7.4869   4.9030   C.ar      1 RES1   0.0000
    84 H4A     -0.4909   7.3412   4.1123   H         1 RES1   0.0000
    85 C6A      0.4614   6.4212   5.6735   C.ar      1 RES1   0.0000
    86 C7A     -0.4903   3.5098   8.5188   C.ar      1 RES1   0.0000
    87 H5A     -0.0355   3.4284   9.3484   H         1 RES1   0.0000
    88 C8A     -1.7439   2.9469   8.3974   C.ar      1 RES1   0.0000
    89 H6A     -2.1322   2.4647   9.1181   H         1 RES1   0.0000
    90 C9A     -2.4245   3.0984   7.2004   C.ar      1 RES1   0.0000
    91 H7A     -3.2867   2.7160   7.0868   H         1 RES1   0.0000
    92 C10A    -1.8368   3.8099   6.1747   C.ar      1 RES1   0.0000
    93 H8A     -2.2938   3.9470   5.3529   H         1 RES1   0.0000
    94 C11A    -0.5670   4.3195   6.3724   C.ar      1 RES1   0.0000
    95 C12A     0.2769   4.5462   4.1154   C.ar      1 RES1   0.0000
    96 C13A     1.0053   4.6439   2.0344   C.ar      1 RES1   0.0000
    97 C14A     0.1108   2.8036   2.7566   C.ar      1 RES1   0.0000
    98 C15A     1.7691   4.8554  -0.1868   C.ar      1 RES1   0.0000
    99 C16A     1.0525   5.3886  -1.2483   C.ar      1 RES1   0.0000
   100 C17A     1.3003   4.9703  -2.5371   C.ar      1 RES1   0.0000
   101 C18A     2.2408   4.0291  -2.7815   C.ar      1 RES1   0.0000
   102 C19A     2.9688   3.4919  -1.7402   C.ar      1 RES1   0.0000
   103 C20A     2.7295   3.9098  -0.4467   C.ar      1 RES1   0.0000
   104 C21A    -0.8745   0.8243   3.5271   C.ar      1 RES1   0.0000
   105 C22A    -2.1873   0.4637   3.3667   C.ar      1 RES1   0.0000
   106 C23A    -2.8228  -0.3156   4.3115   C.ar      1 RES1   0.0000
   107 C24A    -2.1390  -0.7271   5.4120   C.ar      1 RES1   0.0000
   108 C25A    -0.8224  -0.3673   5.5972   C.ar      1 RES1   0.0000
   109 C26A    -0.1899   0.4141   4.6400   C.ar      1 RES1   0.0000
   110 C27      2.9513  11.7348  13.8685   C.1       2 RES2   0.0000
   111 N8       3.6161  12.0550  13.0078   N.1       2 RES2   0.0000
   112 C28      2.0557  11.3026  14.9472   C.3       2 RES2   0.0000
   113 H9       1.3521  11.9878  15.0733   H         2 RES2   0.0000
   114 H10      2.5720  11.2404  15.7893   H         2 RES2   0.0000
   115 C29      1.4030   9.9787  14.6764   C.3       2 RES2   0.0000
   116 H11      0.9402  10.0133  13.8141   H         2 RES2   0.0000
   117 H12      0.7572   9.7821  15.3861   H         2 RES2   0.0000
   118 H13      2.0868   9.2774  14.6530   H         2 RES2   0.0000
@<TRIPOS>BOND
     1     1    15    1
     2     2    22    2
     3     3    45    1
     4     4    46    1
     5     5    47    1
     6     6    48    1
     7     7    49    1
     8     8    51    1
     9     9    52    1
    10    10    53    1
    11    11    54    1
    12    12    55    1
    13    13    42    1
    14    14    43    1
    15    15    22    2
    16    16     1    1
    17    17     1    1
    18    18    31    1
    19    19    41   ar
    20    20    41   ar
    21    21    42   ar
    22    23    16   ar
    23    24    23    1
    24    25    23   ar
    25    26    25    1
    26    27    25   ar
    27    28    27    1
    28    29    27   ar
    29    30    29    1
    30    31    16   ar
    31    32    17   ar
    32    33    32    1
    33    34    32   ar
    34    35    34    1
    35    36    34   ar
    36    37    36    1
    37    38    36   ar
    38    39    38    1
    39    40    17   ar
    40    41    18    1
    41    42    19   ar
    42    43    20   ar
    43    44    13    1
    44    45    44   ar
    45    46    45   ar
    46    47    46   ar
    47    48    47   ar
    48    49    44   ar
    49    50    14    1
    50    51    50   ar
    51    52    51   ar
    52    53    52   ar
    53    54    53   ar
    54    55    50   ar
    55    56    76    2
    56    57    99    1
    57    58   100    1
    58    59   101    1
    59    60   102    1
    60    61   103    1
    61    62   105    1
    62    63   106    1
    63    64   107    1
    64    65   108    1
    65    66   109    1
    66    67    96    1
    67    68    97    1
    68    69     1    1
    69    70     1    1
    70    71     1    1
    71    72    85    1
    72    73    95   ar
    73    74    95   ar
    74    75    96   ar
    75    76    69    2
    76    77    70   ar
    77    78    77    1
    78    79    77   ar
    79    80    79    1
    80    81    79   ar
    81    82    81    1
    82    83    81   ar
    83    84    83    1
    84    85    70   ar
    85    86    71   ar
    86    87    86    1
    87    88    86   ar
    88    89    88    1
    89    90    88   ar
    90    91    90    1
    91    92    90   ar
    92    93    92    1
    93    94    71   ar
    94    95    72    1
    95    96    73   ar
    96    97    74   ar
    97    98    67    1
    98    99    98   ar
    99   100    99   ar
   100   101   100   ar
   101   102   101   ar
   102   103    98   ar
   103   104    68    1
   104   105   104   ar
   105   106   105   ar
   106   107   106   ar
   107   108   107   ar
   108   109   104   ar
   109    18    40    1
   110    21    43   ar
   111    29    31   ar
   112    38    40   ar
   113    48    49   ar
   114    54    55   ar
   115    72    94    1
   116    75    97   ar
   117    83    85   ar
   118    92    94   ar
   119   102   103   ar
   120   108   109   ar
   121   110   111    3
   122   112   110    1
   123   113   112    1
   124   114   112    1
   125   115   112    1
   126   116   115    1
   127   117   115    1
   128   118   115    1
@<TRIPOS>SUBSTRUCTURE
     1 RES1        1 GROUP             0 ****  ****    0  
     2 RES2      110 GROUP             0 ****  ****    0  
@<TRIPOS>CRYSIN
    8.4916   11.4050   15.8660   92.8060  100.1950   99.4160     2     1
