@<TRIPOS>MOLECULE
YOPPOK03
   118   128     2     0     0
SMALL
NO_CHARGES
****
Generated from the CSD

@<TRIPOS>ATOM
     1 Fe1      1.8442   4.8334   7.8469   Fe        1 RES1   0.0000
     2 Se1     -0.1464   6.7584  11.9476   Se        1 RES1   0.0000
     3 F1       3.7827   3.2914  16.5335   F         1 RES1   0.0000
     4 F2       3.4205   4.0170  19.0994   F         1 RES1   0.0000
     5 F3       1.5168   5.8104  19.7397   F         1 RES1   0.0000
     6 F4       0.0008   6.8964  17.7905   F         1 RES1   0.0000
     7 F5       0.3595   6.1832  15.2466   F         1 RES1   0.0000
     8 F6       6.6321   8.8746  13.3947   F         1 RES1   0.0000
     9 F7       7.8202  10.4081  11.5208   F         1 RES1   0.0000
    10 F8       6.4069  11.2284   9.3708   F         1 RES1   0.0000
    11 F9       3.8379  10.5115   9.0773   F         1 RES1   0.0000
    12 F10      2.6516   9.0035  10.9559   F         1 RES1   0.0000
    13 O1       2.2228   4.2586  14.5560   O.3       1 RES1   0.0000
    14 O2       4.0336   8.1834  13.2142   O.3       1 RES1   0.0000
    15 N1       1.0807   5.5923   9.5764   N.2       1 RES1   0.0000
    16 N2       2.7206   3.1589   8.8937   N.ar      1 RES1   0.0000
    17 N3       3.7668   5.7232   8.2126   N.ar      1 RES1   0.0000
    18 N4       3.7982   4.6661  10.3203   N.pl3     1 RES1   0.0000
    19 N5       2.9575   4.4241  12.4656   N.ar      1 RES1   0.0000
    20 N6       3.9243   6.4554  11.7311   N.ar      1 RES1   0.0000
    21 N7       3.1500   6.2693  13.9581   N.ar      1 RES1   0.0000
    22 C1       0.5826   6.0465  10.5149   C.1       1 RES1   0.0000
    23 C2       2.4793   1.9052   8.4841   C.ar      1 RES1   0.0000
    24 H1       1.9882   1.7773   7.7041   H         1 RES1   0.0000
    25 C3       2.9234   0.8134   9.1621   C.ar      1 RES1   0.0000
    26 H2       2.7447  -0.0431   8.8450   H         1 RES1   0.0000
    27 C4       3.6438   0.9911  10.3265   C.ar      1 RES1   0.0000
    28 H3       3.9304   0.2580  10.8225   H         1 RES1   0.0000
    29 C5       3.9310   2.2723  10.7424   C.ar      1 RES1   0.0000
    30 H4       4.4265   2.4291  11.5146   H         1 RES1   0.0000
    31 C6       3.4578   3.3114   9.9734   C.ar      1 RES1   0.0000
    32 C7       4.3838   6.4426   7.2757   C.ar      1 RES1   0.0000
    33 H5       3.9274   6.6157   6.4831   H         1 RES1   0.0000
    34 C8       5.6388   6.9377   7.4138   C.ar      1 RES1   0.0000
    35 H6       6.0281   7.4405   6.7342   H         1 RES1   0.0000
    36 C9       6.3223   6.6808   8.5767   C.ar      1 RES1   0.0000
    37 H7       7.1770   7.0260   8.7038   H         1 RES1   0.0000
    38 C10      5.7348   5.9146   9.5419   C.ar      1 RES1   0.0000
    39 H8       6.1917   5.6987  10.3234   H         1 RES1   0.0000
    40 C11      4.4567   5.4709   9.3300   C.ar      1 RES1   0.0000
    41 C12      3.5491   5.1897  11.5507   C.ar      1 RES1   0.0000
    42 C13      2.7969   5.0527  13.6160   C.ar      1 RES1   0.0000
    43 C14      3.6867   6.8982  12.9254   C.ar      1 RES1   0.0000
    44 C15      2.0987   4.7396  15.8398   C.ar      1 RES1   0.0000
    45 C16      2.8515   4.1823  16.8332   C.ar      1 RES1   0.0000
    46 C17      2.6472   4.5399  18.1342   C.ar      1 RES1   0.0000
    47 C18      1.6939   5.4282  18.4591   C.ar      1 RES1   0.0000
    48 C19      0.9303   6.0050  17.4955   C.ar      1 RES1   0.0000
    49 C20      1.1310   5.6416  16.1741   C.ar      1 RES1   0.0000
    50 C21      4.6336   8.9029  12.1988   C.ar      1 RES1   0.0000
    51 C22      5.9329   9.2568  12.3401   C.ar      1 RES1   0.0000
    52 C23      6.5604  10.0364  11.3765   C.ar      1 RES1   0.0000
    53 C24      5.8254  10.4525  10.2983   C.ar      1 RES1   0.0000
    54 C25      4.5482  10.1003  10.1508   C.ar      1 RES1   0.0000
    55 C26      3.9319   9.3093  11.1050   C.ar      1 RES1   0.0000
    56 Se1A     3.8347   2.9084   3.7463   Se        1 RES1   0.0000
    57 F1A     -0.0944   6.3754  -0.8396   F         1 RES1   0.0000
    58 F2A      0.2678   5.6498  -3.4056   F         1 RES1   0.0000
    59 F3A      2.1715   3.8564  -4.0459   F         1 RES1   0.0000
    60 F4A      3.6875   2.7704  -2.0967   F         1 RES1   0.0000
    61 F5A      3.3288   3.4835   0.4473   F         1 RES1   0.0000
    62 F6A     -2.9438   0.7921   2.2991   F         1 RES1   0.0000
    63 F7A     -4.1319  -0.7413   4.1730   F         1 RES1   0.0000
    64 F8A     -2.7186  -1.5616   6.3230   F         1 RES1   0.0000
    65 F9A     -0.1496  -0.8447   6.6165   F         1 RES1   0.0000
    66 F10A     1.0367   0.6633   4.7380   F         1 RES1   0.0000
    67 O1A      1.4655   5.4081   1.1378   O.3       1 RES1   0.0000
    68 O2A     -0.3453   1.4834   2.4796   O.3       1 RES1   0.0000
    69 N1A      2.6076   4.0745   6.1175   N.2       1 RES1   0.0000
    70 N2A      0.9677   6.5079   6.8001   N.ar      1 RES1   0.0000
    71 N3A     -0.0785   3.9436   7.4813   N.ar      1 RES1   0.0000
    72 N4A     -0.1099   5.0007   5.3736   N.pl3     1 RES1   0.0000
    73 N5A      0.7308   5.2427   3.2282   N.ar      1 RES1   0.0000
    74 N6A     -0.2360   3.2113   3.9627   N.ar      1 RES1   0.0000
    75 N7A      0.5383   3.3975   1.7357   N.ar      1 RES1   0.0000
    76 C1A      3.1057   3.6203   5.1790   C.1       1 RES1   0.0000
    77 C2A      1.2090   7.7616   7.2097   C.ar      1 RES1   0.0000
    78 H1A      1.7001   7.8895   7.9897   H         1 RES1   0.0000
    79 C3A      0.7649   8.8534   6.5318   C.ar      1 RES1   0.0000
    80 H2A      0.9436   9.7099   6.8488   H         1 RES1   0.0000
    81 C4A      0.0445   8.6757   5.3673   C.ar      1 RES1   0.0000
    82 H3A     -0.2421   9.4088   4.8714   H         1 RES1   0.0000
    83 C5A     -0.2427   7.3945   4.9514   C.ar      1 RES1   0.0000
    84 H4A     -0.7382   7.2376   4.1793   H         1 RES1   0.0000
    85 C6A      0.2305   6.3554   5.7204   C.ar      1 RES1   0.0000
    86 C7A     -0.6955   3.2242   8.4182   C.ar      1 RES1   0.0000
    87 H5A     -0.2391   3.0511   9.2107   H         1 RES1   0.0000
    88 C8A     -1.9505   2.7291   8.2801   C.ar      1 RES1   0.0000
    89 H6A     -2.3398   2.2262   8.9596   H         1 RES1   0.0000
    90 C9A     -2.6340   2.9860   7.1172   C.ar      1 RES1   0.0000
    91 H7A     -3.4887   2.6407   6.9900   H         1 RES1   0.0000
    92 C10A    -2.0465   3.7522   6.1520   C.ar      1 RES1   0.0000
    93 H8A     -2.5034   3.9681   5.3704   H         1 RES1   0.0000
    94 C11A    -0.7684   4.1959   6.3639   C.ar      1 RES1   0.0000
    95 C12A     0.1392   4.4771   4.1432   C.ar      1 RES1   0.0000
    96 C13A     0.8914   4.6141   2.0779   C.ar      1 RES1   0.0000
    97 C14A     0.0016   2.7686   2.7684   C.ar      1 RES1   0.0000
    98 C15A     1.5896   4.9272  -0.1460   C.ar      1 RES1   0.0000
    99 C16A     0.8368   5.4845  -1.1394   C.ar      1 RES1   0.0000
   100 C17A     1.0411   5.1269  -2.4404   C.ar      1 RES1   0.0000
   101 C18A     1.9944   4.2386  -2.7653   C.ar      1 RES1   0.0000
   102 C19A     2.7580   3.6618  -1.8017   C.ar      1 RES1   0.0000
   103 C20A     2.5573   4.0251  -0.4802   C.ar      1 RES1   0.0000
   104 C21A    -0.9453   0.7639   3.4950   C.ar      1 RES1   0.0000
   105 C22A    -2.2446   0.4100   3.3538   C.ar      1 RES1   0.0000
   106 C23A    -2.8721  -0.3696   4.3174   C.ar      1 RES1   0.0000
   107 C24A    -2.1371  -0.7857   5.3955   C.ar      1 RES1   0.0000
   108 C25A    -0.8599  -0.4335   5.5431   C.ar      1 RES1   0.0000
   109 C26A    -0.2436   0.3575   4.5889   C.ar      1 RES1   0.0000
   110 C27      2.6215  11.4414  13.9738   C.1       2 RES2   0.0000
   111 N8       3.3097  11.7930  13.1969   N.1       2 RES2   0.0000
   112 C28      1.6676  10.9882  14.9515   C.3       2 RES2   0.0000
   113 H9       2.0814  11.0398  15.8272   H         2 RES2   0.0000
   114 H10      0.9147  11.6000  14.9500   H         2 RES2   0.0000
   115 C29      1.1751   9.6848  14.7757   C.3       2 RES2   0.0000
   116 H11      1.2075   9.4541  13.8435   H         2 RES2   0.0000
   117 H12      0.2674   9.6409  15.0849   H         2 RES2   0.0000
   118 H13      1.7141   9.0683  15.2764   H         2 RES2   0.0000
@<TRIPOS>BOND
     1     1    15    1
     2     2    22    2
     3     3    45    1
     4     4    46    1
     5     5    47    1
     6     6    48    1
     7     7    49    1
     8     8    51    1
     9     9    52    1
    10    10    53    1
    11    11    54    1
    12    12    55    1
    13    13    42    1
    14    14    43    1
    15    15    22    2
    16    16     1    1
    17    17     1    1
    18    18    31    1
    19    19    41   ar
    20    20    41   ar
    21    21    42   ar
    22    23    16   ar
    23    24    23    1
    24    25    23   ar
    25    26    25    1
    26    27    25   ar
    27    28    27    1
    28    29    27   ar
    29    30    29    1
    30    31    16   ar
    31    32    17   ar
    32    33    32    1
    33    34    32   ar
    34    35    34    1
    35    36    34   ar
    36    37    36    1
    37    38    36   ar
    38    39    38    1
    39    40    17   ar
    40    41    18    1
    41    42    19   ar
    42    43    20   ar
    43    44    13    1
    44    45    44   ar
    45    46    45   ar
    46    47    46   ar
    47    48    47   ar
    48    49    44   ar
    49    50    14    1
    50    51    50   ar
    51    52    51   ar
    52    53    52   ar
    53    54    53   ar
    54    55    50   ar
    55    56    76    2
    56    57    99    1
    57    58   100    1
    58    59   101    1
    59    60   102    1
    60    61   103    1
    61    62   105    1
    62    63   106    1
    63    64   107    1
    64    65   108    1
    65    66   109    1
    66    67    96    1
    67    68    97    1
    68    69     1    1
    69    70     1    1
    70    71     1    1
    71    72    85    1
    72    73    95   ar
    73    74    95   ar
    74    75    96   ar
    75    76    69    2
    76    77    70   ar
    77    78    77    1
    78    79    77   ar
    79    80    79    1
    80    81    79   ar
    81    82    81    1
    82    83    81   ar
    83    84    83    1
    84    85    70   ar
    85    86    71   ar
    86    87    86    1
    87    88    86   ar
    88    89    88    1
    89    90    88   ar
    90    91    90    1
    91    92    90   ar
    92    93    92    1
    93    94    71   ar
    94    95    72    1
    95    96    73   ar
    96    97    74   ar
    97    98    67    1
    98    99    98   ar
    99   100    99   ar
   100   101   100   ar
   101   102   101   ar
   102   103    98   ar
   103   104    68    1
   104   105   104   ar
   105   106   105   ar
   106   107   106   ar
   107   108   107   ar
   108   109   104   ar
   109    18    40    1
   110    21    43   ar
   111    29    31   ar
   112    38    40   ar
   113    48    49   ar
   114    54    55   ar
   115    72    94    1
   116    75    97   ar
   117    83    85   ar
   118    92    94   ar
   119   102   103   ar
   120   108   109   ar
   121   110   111    3
   122   112   110    1
   123   113   112    1
   124   114   112    1
   125   115   112    1
   126   116   115    1
   127   117   115    1
   128   118   115    1
@<TRIPOS>SUBSTRUCTURE
     1 RES1        1 GROUP             0 ****  ****    0  
     2 RES2      110 GROUP             0 ****  ****    0  
@<TRIPOS>CRYSIN
    8.8073   11.5010   16.0210   93.5780  100.0550  101.6470     2     1
