@<TRIPOS>MOLECULE
YOPPOK05
   118   128     2     0     0
SMALL
NO_CHARGES
****
Generated from the CSD

@<TRIPOS>ATOM
     1 Fe1      1.8206   4.9313   7.7929   Fe        1 RES1   0.0000
     2 Se1     -0.1369   6.9136  11.7859   Se        1 RES1   0.0000
     3 F1       3.6064   3.5040  16.5402   F         1 RES1   0.0000
     4 F2       3.1783   4.3107  19.0826   F         1 RES1   0.0000
     5 F3       1.2791   6.1537  19.6170   F         1 RES1   0.0000
     6 F4      -0.1698   7.2166  17.6019   F         1 RES1   0.0000
     7 F5       0.2333   6.4205  15.0716   F         1 RES1   0.0000
     8 F6       6.5519   9.0369  13.3060   F         1 RES1   0.0000
     9 F7       7.7631  10.5637  11.4310   F         1 RES1   0.0000
    10 F8       6.3634  11.4090   9.2724   F         1 RES1   0.0000
    11 F9       3.7852  10.6938   8.9625   F         1 RES1   0.0000
    12 F10      2.5731   9.1736  10.8319   F         1 RES1   0.0000
    13 O1       2.1126   4.4465  14.4852   O.3       1 RES1   0.0000
    14 O2       3.9442   8.3547  13.1045   O.3       1 RES1   0.0000
    15 N1       1.1196   5.7077   9.4228   N.2       1 RES1   0.0000
    16 N2       2.5364   3.3598   8.7742   N.ar      1 RES1   0.0000
    17 N3       3.6053   5.7532   8.0707   N.ar      1 RES1   0.0000
    18 N4       3.6594   4.8156  10.2293   N.pl3     1 RES1   0.0000
    19 N5       2.8419   4.5949  12.3894   N.ar      1 RES1   0.0000
    20 N6       3.8206   6.6181  11.6294   N.ar      1 RES1   0.0000
    21 N7       3.0432   6.4519  13.8646   N.ar      1 RES1   0.0000
    22 C1       0.6161   6.1828  10.3436   C.1       1 RES1   0.0000
    23 C2       2.2902   2.1017   8.3403   C.ar      1 RES1   0.0000
    24 H1       1.8150   1.9850   7.5264   H         1 RES1   0.0000
    25 C3       2.6978   0.9927   9.0278   C.ar      1 RES1   0.0000
    26 H2       2.4990   0.1251   8.6954   H         1 RES1   0.0000
    27 C4       3.3990   1.1416  10.2066   C.ar      1 RES1   0.0000
    28 H3       3.6616   0.3817  10.7137   H         1 RES1   0.0000
    29 C5       3.7109   2.4101  10.6325   C.ar      1 RES1   0.0000
    30 H4       4.2182   2.5445  11.4245   H         1 RES1   0.0000
    31 C6       3.2731   3.4873   9.8855   C.ar      1 RES1   0.0000
    32 C7       4.2188   6.4256   7.0733   C.ar      1 RES1   0.0000
    33 H5       3.7672   6.5168   6.2422   H         1 RES1   0.0000
    34 C8       5.4645   6.9830   7.2069   C.ar      1 RES1   0.0000
    35 H6       5.8501   7.4754   6.4915   H         1 RES1   0.0000
    36 C9       6.1537   6.8186   8.3963   C.ar      1 RES1   0.0000
    37 H7       7.0188   7.1951   8.5099   H         1 RES1   0.0000
    38 C10      5.5599   6.1016   9.4122   C.ar      1 RES1   0.0000
    39 H8       6.0149   5.9537  10.2337   H         1 RES1   0.0000
    40 C11      4.2908   5.6005   9.2089   C.ar      1 RES1   0.0000
    41 C12      3.4312   5.3471  11.4619   C.ar      1 RES1   0.0000
    42 C13      2.6920   5.2244  13.5332   C.ar      1 RES1   0.0000
    43 C14      3.5849   7.0722  12.8320   C.ar      1 RES1   0.0000
    44 C15      1.9458   4.9688  15.7525   C.ar      1 RES1   0.0000
    45 C16      2.6692   4.4278  16.7922   C.ar      1 RES1   0.0000
    46 C17      2.4419   4.8178  18.0859   C.ar      1 RES1   0.0000
    47 C18      1.4914   5.7486  18.3555   C.ar      1 RES1   0.0000
    48 C19      0.7621   6.3010  17.3390   C.ar      1 RES1   0.0000
    49 C20      0.9885   5.9089  16.0432   C.ar      1 RES1   0.0000
    50 C21      4.5571   9.0628  12.0867   C.ar      1 RES1   0.0000
    51 C22      5.8661   9.4292  12.2245   C.ar      1 RES1   0.0000
    52 C23      6.4908  10.2040  11.2795   C.ar      1 RES1   0.0000
    53 C24      5.7801  10.6280  10.1869   C.ar      1 RES1   0.0000
    54 C25      4.4769  10.2681  10.0280   C.ar      1 RES1   0.0000
    55 C26      3.8533   9.4843  10.9835   C.ar      1 RES1   0.0000
    56 Se1A     3.7780   2.9491   3.8000   Se        1 RES1   0.0000
    57 F1A      0.0348   6.3587  -0.9543   F         1 RES1   0.0000
    58 F2A      0.4628   5.5520  -3.4967   F         1 RES1   0.0000
    59 F3A      2.3621   3.7090  -4.0311   F         1 RES1   0.0000
    60 F4A      3.8110   2.6461  -2.0160   F         1 RES1   0.0000
    61 F5A      3.4078   3.4422   0.5143   F         1 RES1   0.0000
    62 F6A     -2.9108   0.8258   2.2799   F         1 RES1   0.0000
    63 F7A     -4.1220  -0.7010   4.1549   F         1 RES1   0.0000
    64 F8A     -2.7222  -1.5463   6.3135   F         1 RES1   0.0000
    65 F9A     -0.1441  -0.8311   6.6234   F         1 RES1   0.0000
    66 F10A     1.0680   0.6890   4.7540   F         1 RES1   0.0000
    67 O1A      1.5285   5.4161   1.1007   O.3       1 RES1   0.0000
    68 O2A     -0.3031   1.5080   2.4814   O.3       1 RES1   0.0000
    69 N1A      2.5215   4.1550   6.1631   N.2       1 RES1   0.0000
    70 N2A      1.1047   6.5029   6.8117   N.ar      1 RES1   0.0000
    71 N3A      0.0358   4.1095   7.5152   N.ar      1 RES1   0.0000
    72 N4A     -0.0183   5.0471   5.3566   N.pl3     1 RES1   0.0000
    73 N5A      0.7992   5.2678   3.1965   N.ar      1 RES1   0.0000
    74 N6A     -0.1795   3.2446   3.9565   N.ar      1 RES1   0.0000
    75 N7A      0.5979   3.4108   1.7213   N.ar      1 RES1   0.0000
    76 C1A      3.0250   3.6799   5.2423   C.1       1 RES1   0.0000
    77 C2A      1.3509   7.7610   7.2456   C.ar      1 RES1   0.0000
    78 H1A      1.8262   7.8777   8.0595   H         1 RES1   0.0000
    79 C3A      0.9434   8.8700   6.5581   C.ar      1 RES1   0.0000
    80 H2A      1.1421   9.7375   6.8905   H         1 RES1   0.0000
    81 C4A      0.2422   8.7210   5.3793   C.ar      1 RES1   0.0000
    82 H3A     -0.0205   9.4810   4.8722   H         1 RES1   0.0000
    83 C5A     -0.0697   7.4526   4.9534   C.ar      1 RES1   0.0000
    84 H4A     -0.5771   7.3181   4.1614   H         1 RES1   0.0000
    85 C6A      0.3680   6.3754   5.7004   C.ar      1 RES1   0.0000
    86 C7A     -0.5776   3.4371   8.5126   C.ar      1 RES1   0.0000
    87 H5A     -0.1261   3.3459   9.3437   H         1 RES1   0.0000
    88 C8A     -1.8233   2.8797   8.3790   C.ar      1 RES1   0.0000
    89 H6A     -2.2089   2.3873   9.0944   H         1 RES1   0.0000
    90 C9A     -2.5125   3.0441   7.1896   C.ar      1 RES1   0.0000
    91 H7A     -3.3777   2.6676   7.0760   H         1 RES1   0.0000
    92 C10A    -1.9187   3.7611   6.1737   C.ar      1 RES1   0.0000
    93 H8A     -2.3738   3.9090   5.3522   H         1 RES1   0.0000
    94 C11A    -0.6497   4.2622   6.3770   C.ar      1 RES1   0.0000
    95 C12A     0.2099   4.5156   4.1240   C.ar      1 RES1   0.0000
    96 C13A     0.9491   4.6383   2.0527   C.ar      1 RES1   0.0000
    97 C14A     0.0562   2.7905   2.7539   C.ar      1 RES1   0.0000
    98 C15A     1.6954   4.8939  -0.1666   C.ar      1 RES1   0.0000
    99 C16A     0.9719   5.4349  -1.2063   C.ar      1 RES1   0.0000
   100 C17A     1.1992   5.0449  -2.5000   C.ar      1 RES1   0.0000
   101 C18A     2.1497   4.1141  -2.7696   C.ar      1 RES1   0.0000
   102 C19A     2.8791   3.5617  -1.7531   C.ar      1 RES1   0.0000
   103 C20A     2.6527   3.9538  -0.4573   C.ar      1 RES1   0.0000
   104 C21A    -0.9160   0.7999   3.4992   C.ar      1 RES1   0.0000
   105 C22A    -2.2249   0.4335   3.3614   C.ar      1 RES1   0.0000
   106 C23A    -2.8497  -0.3414   4.3064   C.ar      1 RES1   0.0000
   107 C24A    -2.1390  -0.7654   5.3990   C.ar      1 RES1   0.0000
   108 C25A    -0.8357  -0.4054   5.5579   C.ar      1 RES1   0.0000
   109 C26A    -0.2121   0.3783   4.6024   C.ar      1 RES1   0.0000
   110 C27      2.6933  11.6244  13.8574   C.1       2 RES2   0.0000
   111 N8       3.3696  11.9672  13.0267   N.1       2 RES2   0.0000
   112 C28      1.7796  11.1873  14.9079   C.3       2 RES2   0.0000
   113 H9       1.0306  11.8327  14.9671   H         2 RES2   0.0000
   114 H10      2.2579  11.2034  15.7745   H         2 RES2   0.0000
   115 C29      1.2318   9.8497  14.6975   C.3       2 RES2   0.0000
   116 H11      0.8495   9.7906  13.7966   H         2 RES2   0.0000
   117 H12      0.5319   9.6744  15.3615   H         2 RES2   0.0000
   118 H13      1.9462   9.1847  14.7926   H         2 RES2   0.0000
@<TRIPOS>BOND
     1     1    15    1
     2     2    22    2
     3     3    45    1
     4     4    46    1
     5     5    47    1
     6     6    48    1
     7     7    49    1
     8     8    51    1
     9     9    52    1
    10    10    53    1
    11    11    54    1
    12    12    55    1
    13    13    42    1
    14    14    43    1
    15    15    22    2
    16    16     1    1
    17    17     1    1
    18    18    31    1
    19    19    41   ar
    20    20    41   ar
    21    21    42   ar
    22    23    16   ar
    23    24    23    1
    24    25    23   ar
    25    26    25    1
    26    27    25   ar
    27    28    27    1
    28    29    27   ar
    29    30    29    1
    30    31    16   ar
    31    32    17   ar
    32    33    32    1
    33    34    32   ar
    34    35    34    1
    35    36    34   ar
    36    37    36    1
    37    38    36   ar
    38    39    38    1
    39    40    17   ar
    40    41    18    1
    41    42    19   ar
    42    43    20   ar
    43    44    13    1
    44    45    44   ar
    45    46    45   ar
    46    47    46   ar
    47    48    47   ar
    48    49    44   ar
    49    50    14    1
    50    51    50   ar
    51    52    51   ar
    52    53    52   ar
    53    54    53   ar
    54    55    50   ar
    55    56    76    2
    56    57    99    1
    57    58   100    1
    58    59   101    1
    59    60   102    1
    60    61   103    1
    61    62   105    1
    62    63   106    1
    63    64   107    1
    64    65   108    1
    65    66   109    1
    66    67    96    1
    67    68    97    1
    68    69     1    1
    69    70     1    1
    70    71     1    1
    71    72    85    1
    72    73    95   ar
    73    74    95   ar
    74    75    96   ar
    75    76    69    2
    76    77    70   ar
    77    78    77    1
    78    79    77   ar
    79    80    79    1
    80    81    79   ar
    81    82    81    1
    82    83    81   ar
    83    84    83    1
    84    85    70   ar
    85    86    71   ar
    86    87    86    1
    87    88    86   ar
    88    89    88    1
    89    90    88   ar
    90    91    90    1
    91    92    90   ar
    92    93    92    1
    93    94    71   ar
    94    95    72    1
    95    96    73   ar
    96    97    74   ar
    97    98    67    1
    98    99    98   ar
    99   100    99   ar
   100   101   100   ar
   101   102   101   ar
   102   103    98   ar
   103   104    68    1
   104   105   104   ar
   105   106   105   ar
   106   107   106   ar
   107   108   107   ar
   108   109   104   ar
   109    18    40    1
   110    21    43   ar
   111    29    31   ar
   112    38    40   ar
   113    48    49   ar
   114    54    55   ar
   115    72    94    1
   116    75    97   ar
   117    83    85   ar
   118    92    94   ar
   119   102   103   ar
   120   108   109   ar
   121   110   111    3
   122   112   110    1
   123   113   112    1
   124   114   112    1
   125   115   112    1
   126   116   115    1
   127   117   115    1
   128   118   115    1
@<TRIPOS>SUBSTRUCTURE
     1 RES1        1 GROUP             0 ****  ****    0  
     2 RES2      110 GROUP             0 ****  ****    0  
@<TRIPOS>CRYSIN
    8.5616   11.4567   15.9171   93.1760  100.5110  100.1390     2     1
