@<TRIPOS>MOLECULE
YOPPOK04
   118   128     2     0     0
SMALL
NO_CHARGES
****
Generated from the CSD

@<TRIPOS>ATOM
     1 Fe1      1.8992   5.0394   7.7877   Fe        1 RES1   0.0000
     2 Se1     -0.0088   7.1139  11.7675   Se        1 RES1   0.0000
     3 F1       3.6589   3.7716  16.5991   F         1 RES1   0.0000
     4 F2       3.2000   4.6308  19.1190   F         1 RES1   0.0000
     5 F3       1.3011   6.5038  19.5869   F         1 RES1   0.0000
     6 F4      -0.1202   7.5388  17.5210   F         1 RES1   0.0000
     7 F5       0.3128   6.6758  15.0154   F         1 RES1   0.0000
     8 F6       6.6569   9.2341  13.3099   F         1 RES1   0.0000
     9 F7       7.9181  10.7456  11.4474   F         1 RES1   0.0000
    10 F8       6.5667  11.5745   9.2479   F         1 RES1   0.0000
    11 F9       3.9849  10.8471   8.8765   F         1 RES1   0.0000
    12 F10      2.7327   9.3236  10.7292   F         1 RES1   0.0000
    13 O1       2.1919   4.6765  14.4980   O.3       1 RES1   0.0000
    14 O2       4.0536   8.5529  13.0587   O.3       1 RES1   0.0000
    15 N1       1.2033   5.8447   9.3964   N.2       1 RES1   0.0000
    16 N2       2.6092   3.4866   8.7984   N.ar      1 RES1   0.0000
    17 N3       3.6847   5.8622   8.0518   N.ar      1 RES1   0.0000
    18 N4       3.7417   4.9723  10.2277   N.pl3     1 RES1   0.0000
    19 N5       2.9308   4.7837  12.3983   N.ar      1 RES1   0.0000
    20 N6       3.9196   6.7964  11.6069   N.ar      1 RES1   0.0000
    21 N7       3.1360   6.6676  13.8487   N.ar      1 RES1   0.0000
    22 C1       0.7163   6.3466  10.3238   C.1       1 RES1   0.0000
    23 C2       2.3683   2.2181   8.3811   C.ar      1 RES1   0.0000
    24 H1       1.8974   2.0874   7.5665   H         1 RES1   0.0000
    25 C3       2.7820   1.1120   9.0913   C.ar      1 RES1   0.0000
    26 H2       2.5919   0.2383   8.7720   H         1 RES1   0.0000
    27 C4       3.4764   1.2885  10.2735   C.ar      1 RES1   0.0000
    28 H3       3.7357   0.5389  10.7968   H         1 RES1   0.0000
    29 C5       3.7854   2.5700  10.6831   C.ar      1 RES1   0.0000
    30 H4       4.2877   2.7214  11.4759   H         1 RES1   0.0000
    31 C6       3.3433   3.6314   9.9076   C.ar      1 RES1   0.0000
    32 C7       4.2983   6.5177   7.0390   C.ar      1 RES1   0.0000
    33 H5       3.8439   6.5927   6.2083   H         1 RES1   0.0000
    34 C8       5.5457   7.0796   7.1569   C.ar      1 RES1   0.0000
    35 H6       5.9322   7.5544   6.4311   H         1 RES1   0.0000
    36 C9       6.2306   6.9440   8.3515   C.ar      1 RES1   0.0000
    37 H7       7.0943   7.3258   8.4590   H         1 RES1   0.0000
    38 C10      5.6415   6.2428   9.3891   C.ar      1 RES1   0.0000
    39 H8       6.0967   6.1145  10.2127   H         1 RES1   0.0000
    40 C11      4.3654   5.7340   9.1923   C.ar      1 RES1   0.0000
    41 C12      3.5222   5.5171  11.4563   C.ar      1 RES1   0.0000
    42 C13      2.7806   5.4295  13.5359   C.ar      1 RES1   0.0000
    43 C14      3.6835   7.2651  12.8014   C.ar      1 RES1   0.0000
    44 C15      2.0159   5.2304  15.7566   C.ar      1 RES1   0.0000
    45 C16      2.7209   4.6997  16.8120   C.ar      1 RES1   0.0000
    46 C17      2.4785   5.1220  18.1032   C.ar      1 RES1   0.0000
    47 C18      1.5265   6.0748  18.3404   C.ar      1 RES1   0.0000
    48 C19      0.8106   6.6069  17.2964   C.ar      1 RES1   0.0000
    49 C20      1.0474   6.1811  16.0068   C.ar      1 RES1   0.0000
    50 C21      4.6870   9.2400  12.0357   C.ar      1 RES1   0.0000
    51 C22      6.0051   9.6100  12.2111   C.ar      1 RES1   0.0000
    52 C23      6.6402  10.3920  11.2656   C.ar      1 RES1   0.0000
    53 C24      5.9633  10.7930  10.1567   C.ar      1 RES1   0.0000
    54 C25      4.6508  10.4323   9.9620   C.ar      1 RES1   0.0000
    55 C26      4.0151   9.6459  10.9059   C.ar      1 RES1   0.0000
    56 Se1A     3.8072   2.9648   3.8079   Se        1 RES1   0.0000
    57 F1A      0.1395   6.3071  -1.0238   F         1 RES1   0.0000
    58 F2A      0.5984   5.4480  -3.5437   F         1 RES1   0.0000
    59 F3A      2.4974   3.5750  -4.0116   F         1 RES1   0.0000
    60 F4A      3.9186   2.5400  -1.9457   F         1 RES1   0.0000
    61 F5A      3.4857   3.4030   0.5599   F         1 RES1   0.0000
    62 F6A     -2.8585   0.8447   2.2654   F         1 RES1   0.0000
    63 F7A     -4.1197  -0.6668   4.1279   F         1 RES1   0.0000
    64 F8A     -2.7682  -1.4957   6.3275   F         1 RES1   0.0000
    65 F9A     -0.1865  -0.7684   6.6988   F         1 RES1   0.0000
    66 F10A     1.0657   0.7552   4.8461   F         1 RES1   0.0000
    67 O1A      1.6066   5.4023   1.0773   O.3       1 RES1   0.0000
    68 O2A     -0.2551   1.5259   2.5167   O.3       1 RES1   0.0000
    69 N1A      2.5952   4.2341   6.1789   N.2       1 RES1   0.0000
    70 N2A      1.1893   6.5922   6.7770   N.ar      1 RES1   0.0000
    71 N3A      0.1137   4.2166   7.5235   N.ar      1 RES1   0.0000
    72 N4A      0.0568   5.1065   5.3476   N.pl3     1 RES1   0.0000
    73 N5A      0.8676   5.2951   3.1771   N.ar      1 RES1   0.0000
    74 N6A     -0.1212   3.2824   3.9684   N.ar      1 RES1   0.0000
    75 N7A      0.6625   3.4112   1.7267   N.ar      1 RES1   0.0000
    76 C1A      3.0822   3.7322   5.2515   C.1       1 RES1   0.0000
    77 C2A      1.4302   7.8607   7.1942   C.ar      1 RES1   0.0000
    78 H1A      1.9010   7.9914   8.0088   H         1 RES1   0.0000
    79 C3A      1.0164   8.9667   6.4840   C.ar      1 RES1   0.0000
    80 H2A      1.2066   9.8405   6.8033   H         1 RES1   0.0000
    81 C4A      0.3221   8.7902   5.3018   C.ar      1 RES1   0.0000
    82 H3A      0.0628   9.5399   4.7785   H         1 RES1   0.0000
    83 C5A      0.0130   7.5088   4.8922   C.ar      1 RES1   0.0000
    84 H4A     -0.4893   7.3574   4.0994   H         1 RES1   0.0000
    85 C6A      0.4551   6.4473   5.6677   C.ar      1 RES1   0.0000
    86 C7A     -0.4999   3.5610   8.5364   C.ar      1 RES1   0.0000
    87 H5A     -0.0455   3.4861   9.3670   H         1 RES1   0.0000
    88 C8A     -1.7472   2.9992   8.4185   C.ar      1 RES1   0.0000
    89 H6A     -2.1338   2.5244   9.1443   H         1 RES1   0.0000
    90 C9A     -2.4321   3.1348   7.2238   C.ar      1 RES1   0.0000
    91 H7A     -3.2959   2.7530   7.1164   H         1 RES1   0.0000
    92 C10A    -1.8431   3.8360   6.1862   C.ar      1 RES1   0.0000
    93 H8A     -2.2982   3.9643   5.3626   H         1 RES1   0.0000
    94 C11A    -0.5670   4.3448   6.3831   C.ar      1 RES1   0.0000
    95 C12A     0.2763   4.5617   4.1191   C.ar      1 RES1   0.0000
    96 C13A     1.0179   4.6493   2.0394   C.ar      1 RES1   0.0000
    97 C14A     0.1150   2.8137   2.7740   C.ar      1 RES1   0.0000
    98 C15A     1.7826   4.8484  -0.1813   C.ar      1 RES1   0.0000
    99 C16A     1.0776   5.3790  -1.2367   C.ar      1 RES1   0.0000
   100 C17A     1.3200   4.9568  -2.5279   C.ar      1 RES1   0.0000
   101 C18A     2.2719   4.0040  -2.7651   C.ar      1 RES1   0.0000
   102 C19A     2.9878   3.4719  -1.7211   C.ar      1 RES1   0.0000
   103 C20A     2.7511   3.8976  -0.4314   C.ar      1 RES1   0.0000
   104 C21A    -0.8885   0.8388   3.5397   C.ar      1 RES1   0.0000
   105 C22A    -2.2066   0.4688   3.3643   C.ar      1 RES1   0.0000
   106 C23A    -2.8417  -0.3132   4.3097   C.ar      1 RES1   0.0000
   107 C24A    -2.1649  -0.7142   5.4187   C.ar      1 RES1   0.0000
   108 C25A    -0.8524  -0.3535   5.6134   C.ar      1 RES1   0.0000
   109 C26A    -0.2166   0.4329   4.6695   C.ar      1 RES1   0.0000
   110 C27      2.9644  11.7885  13.8854   C.1       2 RES2   0.0000
   111 N8       3.6455  12.1012  13.0288   N.1       2 RES2   0.0000
   112 C28      2.0620  11.3624  14.9695   C.3       2 RES2   0.0000
   113 H9       1.3627  12.0515  15.0972   H         2 RES2   0.0000
   114 H10      2.5783  11.2944  15.8121   H         2 RES2   0.0000
   115 C29      1.3979  10.0308  14.6907   C.3       2 RES2   0.0000
   116 H11      0.9124  10.0802  13.8402   H         2 RES2   0.0000
   117 H12      0.7703   9.8212  15.4134   H         2 RES2   0.0000
   118 H13      2.0804   9.3306  14.6361   H         2 RES2   0.0000
@<TRIPOS>BOND
     1     1    15    1
     2     2    22    2
     3     3    45    1
     4     4    46    1
     5     5    47    1
     6     6    48    1
     7     7    49    1
     8     8    51    1
     9     9    52    1
    10    10    53    1
    11    11    54    1
    12    12    55    1
    13    13    42    1
    14    14    43    1
    15    15    22    2
    16    16     1    1
    17    17     1    1
    18    18    31    1
    19    19    41   ar
    20    20    41   ar
    21    21    42   ar
    22    23    16   ar
    23    24    23    1
    24    25    23   ar
    25    26    25    1
    26    27    25   ar
    27    28    27    1
    28    29    27   ar
    29    30    29    1
    30    31    16   ar
    31    32    17   ar
    32    33    32    1
    33    34    32   ar
    34    35    34    1
    35    36    34   ar
    36    37    36    1
    37    38    36   ar
    38    39    38    1
    39    40    17   ar
    40    41    18    1
    41    42    19   ar
    42    43    20   ar
    43    44    13    1
    44    45    44   ar
    45    46    45   ar
    46    47    46   ar
    47    48    47   ar
    48    49    44   ar
    49    50    14    1
    50    51    50   ar
    51    52    51   ar
    52    53    52   ar
    53    54    53   ar
    54    55    50   ar
    55    56    76    2
    56    57    99    1
    57    58   100    1
    58    59   101    1
    59    60   102    1
    60    61   103    1
    61    62   105    1
    62    63   106    1
    63    64   107    1
    64    65   108    1
    65    66   109    1
    66    67    96    1
    67    68    97    1
    68    69     1    1
    69    70     1    1
    70    71     1    1
    71    72    85    1
    72    73    95   ar
    73    74    95   ar
    74    75    96   ar
    75    76    69    2
    76    77    70   ar
    77    78    77    1
    78    79    77   ar
    79    80    79    1
    80    81    79   ar
    81    82    81    1
    82    83    81   ar
    83    84    83    1
    84    85    70   ar
    85    86    71   ar
    86    87    86    1
    87    88    86   ar
    88    89    88    1
    89    90    88   ar
    90    91    90    1
    91    92    90   ar
    92    93    92    1
    93    94    71   ar
    94    95    72    1
    95    96    73   ar
    96    97    74   ar
    97    98    67    1
    98    99    98   ar
    99   100    99   ar
   100   101   100   ar
   101   102   101   ar
   102   103    98   ar
   103   104    68    1
   104   105   104   ar
   105   106   105   ar
   106   107   106   ar
   107   108   107   ar
   108   109   104   ar
   109    18    40    1
   110    21    43   ar
   111    29    31   ar
   112    38    40   ar
   113    48    49   ar
   114    54    55   ar
   115    72    94    1
   116    75    97   ar
   117    83    85   ar
   118    92    94   ar
   119   102   103   ar
   120   108   109   ar
   121   110   111    3
   122   112   110    1
   123   113   112    1
   124   114   112    1
   125   115   112    1
   126   116   115    1
   127   117   115    1
   128   118   115    1
@<TRIPOS>SUBSTRUCTURE
     1 RES1        1 GROUP             0 ****  ****    0  
     2 RES2      110 GROUP             0 ****  ****    0  
@<TRIPOS>CRYSIN
    8.4837   11.3780   15.8780   92.4500  100.3850   99.2200     2     1
