@<TRIPOS>MOLECULE
YOQKOG
    79    80     5     0     0
SMALL
USER_CHARGES
****
Generated from the CSD

@<TRIPOS>ATOM
     1 Fe1      4.6803   6.3448   3.8617   Fe        1 RES1   2.0000
     2 O1       5.9382   7.8707   3.2180   O.2       1 RES1   0.0000
     3 O2       3.4546   4.9802   4.7995   O.2       1 RES1   0.0000
     4 N1       4.4808   7.4836   5.6700   N.ar      1 RES1   0.0000
     5 N2       6.6266   8.4114   5.3188   N.am      1 RES1   0.0000
     6 H1       7.3460   8.5738   5.7983   H         1 RES1   0.0000
     7 N3       2.3584   6.4973   6.0797   N.am      1 RES1   0.0000
     8 H2       1.5472   6.7023   6.3512   H         1 RES1   0.0000
     9 C1       3.3588   7.4553   6.3936   C.ar      1 RES1   0.0000
    10 C2       3.1082   8.2929   7.4658   C.ar      1 RES1   0.0000
    11 H3       2.2923   8.2402   7.9515   H         1 RES1   0.0000
    12 C3       4.0873   9.2094   7.8058   C.ar      1 RES1   0.0000
    13 H4       3.9513   9.8126   8.5268   H         1 RES1   0.0000
    14 C4       5.2684   9.2347   7.0835   C.ar      1 RES1   0.0000
    15 H5       5.9600   9.8433   7.3139   H         1 RES1   0.0000
    16 C5       5.4236   8.3694   6.0337   C.ar      1 RES1   0.0000
    17 C6       6.8359   8.2388   4.0038   C.2       1 RES1   0.0000
    18 C7       8.2096   8.5102   3.5031   C.3       1 RES1   0.0000
    19 H6       8.4463   7.8468   2.8207   H         1 RES1   0.0000
    20 H7       8.8445   8.4541   4.2466   H         1 RES1   0.0000
    21 H8       8.2429   9.4078   3.1109   H         1 RES1   0.0000
    22 C8       2.4632   5.3337   5.4384   C.2       1 RES1   0.0000
    23 C9       1.2785   4.4036   5.5306   C.3       1 RES1   0.0000
    24 H9       1.0728   4.0450   4.6426   H         1 RES1   0.0000
    25 H10      0.5027   4.8967   5.8718   H         1 RES1   0.0000
    26 H11      1.4908   3.6665   6.1395   H         1 RES1   0.0000
    27 O3       6.3336   5.2690   4.4571   O.2       1 RES1   0.0000
    28 O4       3.0554   7.3765   3.0772   O.2       1 RES1   0.0000
    29 N4       4.7838   5.2907   1.9975   N.ar      1 RES1   0.0000
    30 N5       7.0812   4.7637   2.3786   N.am      1 RES1   0.0000
    31 H12      7.8324   4.6885   1.9278   H         1 RES1   0.0000
    32 N6       2.4951   5.7895   1.5430   N.am      1 RES1   0.0000
    33 H13      1.7882   5.4306   1.1607   H         1 RES1   0.0000
    34 C10      3.7058   5.1847   1.1756   C.ar      1 RES1   0.0000
    35 C11      3.7210   4.4791  -0.0025   C.ar      1 RES1   0.0000
    36 H14      2.9380   4.4156  -0.5367   H         1 RES1   0.0000
    37 C12      4.8865   3.8651  -0.3960   C.ar      1 RES1   0.0000
    38 H15      4.9254   3.3747  -1.2092   H         1 RES1   0.0000
    39 C13      5.9968   3.9740   0.4097   C.ar      1 RES1   0.0000
    40 H16      6.8166   3.5669   0.1582   H         1 RES1   0.0000
    41 C14      5.9006   4.6877   1.5953   C.ar      1 RES1   0.0000
    42 C15      7.2274   4.9305   3.6837   C.2       1 RES1   0.0000
    43 C16      8.6257   4.7098   4.2267   C.3       1 RES1   0.0000
    44 H17      8.8854   5.4739   4.7833   H         1 RES1   0.0000
    45 H18      9.2570   4.6194   3.4820   H         1 RES1   0.0000
    46 H19      8.6382   3.8925   4.7684   H         1 RES1   0.0000
    47 C17      2.2056   6.8088   2.3661   C.2       1 RES1   0.0000
    48 C18      0.7743   7.2391   2.4359   C.3       1 RES1   0.0000
    49 H20      0.4033   6.9987   3.3101   H         1 RES1   0.0000
    50 H21      0.2643   6.7905   1.7298   H         1 RES1   0.0000
    51 H22      0.7173   8.2103   2.3126   H         1 RES1   0.0000
    52 S1       7.9912   3.5417  11.7147   S.o2      2 RES2   0.0000
    53 O5       9.4303   3.4232  11.7510   O.3       2 RES2  -1.0000
    54 O6       7.2884   2.6036  12.5505   O.2       2 RES2   0.0000
    55 O7       7.4304   3.7051  10.3973   O.2       2 RES2   0.0000
    56 C19      7.7002   5.1393  12.5356   C.3       2 RES2   0.0000
    57 F1       6.4026   5.3913  12.6091   F         2 RES2   0.0000
    58 F2       8.2781   6.1222  11.8756   F         2 RES2   0.0000
    59 F3       8.1745   5.1404  13.7710   F         2 RES2   0.0000
    60 S2       8.7367  -0.4206   5.0084   S.o2      3 RES3   0.0000
    61 O8       7.8713  -0.9617   3.9689   O.3       3 RES3  -1.0000
    62 O9       8.1255   0.3350   5.9801   O.2       3 RES3   0.0000
    63 O10      9.6600  -1.3808   5.5019   O.2       3 RES3   0.0000
    64 C20      9.8093   0.7673   4.1196   C.3       3 RES3   0.0000
    65 F4      10.6612   1.3297   4.9901   F         3 RES3   0.0000
    66 F5      10.4801   0.1710   3.2080   F         3 RES3   0.0000
    67 F6       9.0662   1.6933   3.5480   F         3 RES3   0.0000
    68 N7       5.3524   2.2034   3.4185   N.1       4 RES4   0.0000
    69 C21      4.2498   1.9819   3.3275   C.1       4 RES4   0.0000
    70 C22      2.8110   1.6793   3.2416   C.3       4 RES4   0.0000
    71 H23      2.3320   2.4658   2.9066   H         4 RES4   0.0000
    72 H24      2.4726   1.4440   4.1308   H         4 RES4   0.0000
    73 H25      2.6714   0.9269   2.6289   H         4 RES4   0.0000
    74 N8       5.0867  -3.9909  11.1296   N.1       5 RES5   0.0000
    75 C23      5.2223  -4.3612  12.2292   C.1       5 RES5   0.0000
    76 C24      5.3442  -4.8165  13.6078   C.3       5 RES5   0.0000
    77 H26      4.8063  -5.6262  13.7324   H         5 RES5   0.0000
    78 H27      5.0265  -4.1159  14.2143   H         5 RES5   0.0000
    79 H28      6.2839  -5.0159  13.8033   H         5 RES5   0.0000
@<TRIPOS>BOND
     1     1     2    1
     2     2    17    2
     3     3     1    1
     4     4     1    1
     5     5     6    1
     6     7     8    1
     7     9     4   ar
     8    10     9   ar
     9    11    10    1
    10    12    10   ar
    11    13    12    1
    12    14    12   ar
    13    15    14    1
    14    16     4   ar
    15    17     5   am
    16    18    17    1
    17    19    18    1
    18    20    18    1
    19    21    18    1
    20    22     3    2
    21    23    22    1
    22    24    23    1
    23    25    23    1
    24    26    23    1
    25    27     1    1
    26    28     1    1
    27    29     1    1
    28    30    31    1
    29    32    33    1
    30    34    29   ar
    31    35    34   ar
    32    36    35    1
    33    37    35   ar
    34    38    37    1
    35    39    37   ar
    36    40    39    1
    37    41    29   ar
    38    42    27    2
    39    43    42    1
    40    44    43    1
    41    45    43    1
    42    46    43    1
    43    47    28    2
    44    48    47    1
    45    49    48    1
    46    50    48    1
    47    51    48    1
    48     5    16    1
    49     7     9    1
    50     7    22   am
    51    14    16   ar
    52    30    41    1
    53    30    42   am
    54    32    34    1
    55    32    47   am
    56    39    41   ar
    57    52    53    1
    58    54    52    2
    59    55    52    2
    60    56    52    1
    61    57    56    1
    62    58    56    1
    63    59    56    1
    64    60    61    1
    65    62    60    2
    66    63    60    2
    67    64    60    1
    68    65    64    1
    69    66    64    1
    70    67    64    1
    71    68    69    3
    72    69    70    1
    73    70    71    1
    74    72    70    1
    75    73    70    1
    76    74    75    3
    77    75    76    1
    78    76    77    1
    79    78    76    1
    80    79    76    1
@<TRIPOS>SUBSTRUCTURE
     1 RES1        1 GROUP             0 ****  ****    0  
     2 RES2       52 GROUP             0 ****  ****    0  
     3 RES3       60 GROUP             0 ****  ****    0  
     4 RES4       68 GROUP             0 ****  ****    0  
     5 RES5       74 GROUP             0 ****  ****    0  
@<TRIPOS>CRYSIN
   10.9250   12.4390   13.5740  110.8180   97.9720   96.3120     2     1
