@<TRIPOS>MOLECULE
YOSGAR
    80    84     2     0     0
SMALL
NO_CHARGES
****
Generated from the CSD

@<TRIPOS>ATOM
     1 Fe1      9.5491   4.1531   7.5998   Fe        1 RES1   0.0000
     2 S1      10.3779   2.2639   6.4558   S.3       1 RES1   0.0000
     3 P1       5.2106   5.5448   1.7751   P.3       1 RES1   0.0000
     4 O1      11.7593   3.9430   9.4655   O.2       1 RES1   0.0000
     5 O2       8.5145   6.4101   9.1274   O.2       1 RES1   0.0000
     6 O3      11.6532   5.9159   6.7834   O.2       1 RES1   0.0000
     7 O4       6.0270   4.4389   2.5537   O.3       1 RES1   0.0000
     8 O5       4.1739   5.9917   2.8759   O.3       1 RES1   0.0000
     9 O6       4.4508   4.6545   0.7215   O.3       1 RES1   0.0000
    10 O7       5.9417   6.6217   1.1355   O.2       1 RES1   0.0000
    11 O8       6.3573   3.7135   7.2648   O.3       1 RES1   0.0000
    12 N1       8.1841   4.4092   6.0769   N.ar      1 RES1   0.0000
    13 N2       8.6991   2.4275   8.3741   N.ar      1 RES1   0.0000
    14 C1      10.8820   4.0009   8.7331   C.1       1 RES1   0.0000
    15 C2       8.8828   5.5075   8.5271   C.1       1 RES1   0.0000
    16 C3      10.6360   5.3029   6.5177   C.2       1 RES1   0.0000
    17 C4      10.1614   5.3098   5.0538   C.3       1 RES1   0.0000
    18 H1      10.2641   6.2211   4.6817   H         1 RES1   0.0000
    19 H2      10.7318   4.6980   4.5234   H         1 RES1   0.0000
    20 C5       8.7414   4.8865   4.9289   C.ar      1 RES1   0.0000
    21 C6       8.0342   4.9949   3.7439   C.ar      1 RES1   0.0000
    22 C7       6.7144   4.5478   3.7624   C.ar      1 RES1   0.0000
    23 C8       6.0949   4.0875   4.9060   C.ar      1 RES1   0.0000
    24 C9       6.8779   4.0914   6.0686   C.ar      1 RES1   0.0000
    25 C10      8.6645   5.5314   2.4785   C.3       1 RES1   0.0000
    26 H3       8.2099   6.3576   2.2122   H         1 RES1   0.0000
    27 H4       8.5789   4.8663   1.7635   H         1 RES1   0.0000
    28 H5       9.6130   5.7174   2.6395   H         1 RES1   0.0000
    29 C11      4.6817   3.5705   4.9004   C.3       1 RES1   0.0000
    30 H6       4.0576   4.3231   4.9684   H         1 RES1   0.0000
    31 H7       4.5506   2.9681   5.6625   H         1 RES1   0.0000
    32 H8       4.5150   3.0824   4.0667   H         1 RES1   0.0000
    33 C12      5.3713   4.6077   7.8023   C.3       1 RES1   0.0000
    34 H9       4.6934   4.7953   7.1198   H         1 RES1   0.0000
    35 H10      5.8026   5.4455   8.0727   H         1 RES1   0.0000
    36 H11      4.9446   4.1941   8.5813   H         1 RES1   0.0000
    37 C13      3.4463   7.2114   2.7996   C.ar      1 RES1   0.0000
    38 C14      3.3401   7.9202   3.9748   C.ar      1 RES1   0.0000
    39 H12      3.7531   7.6114   4.7724   H         1 RES1   0.0000
    40 C15      2.6088   9.0974   3.9574   C.ar      1 RES1   0.0000
    41 H13      2.5190   9.6062   4.7549   H         1 RES1   0.0000
    42 C16      2.0088   9.5420   2.7925   C.ar      1 RES1   0.0000
    43 H14      1.5092  10.3499   2.7939   H         1 RES1   0.0000
    44 C17      2.1371   8.8145   1.6331   C.ar      1 RES1   0.0000
    45 H15      1.7325   9.1263   0.8320   H         1 RES1   0.0000
    46 C18      2.8571   7.6197   1.6275   C.ar      1 RES1   0.0000
    47 H16      2.9390   7.1030   0.8347   H         1 RES1   0.0000
    48 C19      3.7209   3.5045   1.1143   C.ar      1 RES1   0.0000
    49 C20      2.4309   3.6618   1.5614   C.ar      1 RES1   0.0000
    50 H17      2.0412   4.5261   1.6242   H         1 RES1   0.0000
    51 C21      1.7142   2.5352   1.9179   C.ar      1 RES1   0.0000
    52 H18      0.8273   2.6261   2.2468   H         1 RES1   0.0000
    53 C22      2.2716   1.2885   1.8002   C.ar      1 RES1   0.0000
    54 H19      1.7701   0.5177   2.0401   H         1 RES1   0.0000
    55 C23      3.5680   1.1538   1.3311   C.ar      1 RES1   0.0000
    56 H20      3.9525   0.2890   1.2486   H         1 RES1   0.0000
    57 C24      4.3082   2.2687   0.9815   C.ar      1 RES1   0.0000
    58 H21      5.1974   2.1832   0.6587   H         1 RES1   0.0000
    59 C25      9.2803   1.4936   7.5741   C.ar      1 RES1   0.0000
    60 C26      9.0039   0.1412   7.7060   C.ar      1 RES1   0.0000
    61 H22      9.4001  -0.5013   7.1286   H         1 RES1   0.0000
    62 C27      8.1321  -0.2385   8.7071   C.ar      1 RES1   0.0000
    63 H23      7.9009  -1.1549   8.8062   H         1 RES1   0.0000
    64 C28      7.6001   0.6861   9.5539   C.ar      1 RES1   0.0000
    65 H24      7.0236   0.4108  10.2571   H         1 RES1   0.0000
    66 C29      7.9021   2.0358   9.3882   C.ar      1 RES1   0.0000
    67 C30      7.4227   3.0937  10.3292   C.3       1 RES1   0.0000
    68 H25      8.1885   3.4794  10.8042   H         1 RES1   0.0000
    69 H26      6.8021   2.6987  10.9762   H         1 RES1   0.0000
    70 H27      6.9643   3.7969   9.8236   H         1 RES1   0.0000
    71 O9       6.6096   7.3480   6.5452   O.2       2 RES2   0.0000
    72 C31      7.4698   8.5185   4.7412   C.3       2 RES2   0.0000
    73 H28      7.0124   7.8341   4.2082   H         2 RES2   0.0000
    74 H29      8.4161   8.5502   4.4876   H         2 RES2   0.0000
    75 H30      7.0575   9.3917   4.5732   H         2 RES2   0.0000
    76 C32      7.3538   8.1851   6.1754   C.2       2 RES2   0.0000
    77 C33      8.1759   8.9855   7.1315   C.3       2 RES2   0.0000
    78 H31      7.7953   9.8847   7.2168   H         2 RES2   0.0000
    79 H32      9.0949   9.0506   6.7965   H         2 RES2   0.0000
    80 H33      8.1780   8.5472   8.0076   H         2 RES2   0.0000
@<TRIPOS>BOND
     1     1     2    1
     2     2    59    1
     3     3     7    1
     4     4    14    3
     5     5    15    3
     6     6    16    2
     7     7    22    1
     8     8     3    1
     9     9     3    1
    10    10     3    2
    11    11    24    1
    12    12     1    1
    13    13     1    1
    14    14     1    1
    15    15     1    1
    16    16     1    1
    17    17    16    1
    18    18    17    1
    19    19    17    1
    20    20    12   ar
    21    21    20   ar
    22    22    21   ar
    23    23    22   ar
    24    24    12   ar
    25    25    21    1
    26    26    25    1
    27    27    25    1
    28    28    25    1
    29    29    23    1
    30    30    29    1
    31    31    29    1
    32    32    29    1
    33    33    11    1
    34    34    33    1
    35    35    33    1
    36    36    33    1
    37    37     8    1
    38    38    37   ar
    39    39    38    1
    40    40    38   ar
    41    41    40    1
    42    42    40   ar
    43    43    42    1
    44    44    42   ar
    45    45    44    1
    46    46    37   ar
    47    47    46    1
    48    48     9    1
    49    49    48   ar
    50    50    49    1
    51    51    49   ar
    52    52    51    1
    53    53    51   ar
    54    54    53    1
    55    55    53   ar
    56    56    55    1
    57    57    48   ar
    58    58    57    1
    59    59    13   ar
    60    60    59   ar
    61    61    60    1
    62    62    60   ar
    63    63    62    1
    64    64    62   ar
    65    65    64    1
    66    66    13   ar
    67    67    66    1
    68    68    67    1
    69    69    67    1
    70    70    67    1
    71    17    20    1
    72    23    24   ar
    73    44    46   ar
    74    55    57   ar
    75    64    66   ar
    76    71    76    2
    77    72    73    1
    78    74    72    1
    79    75    72    1
    80    76    72    1
    81    77    76    1
    82    78    77    1
    83    79    77    1
    84    80    77    1
@<TRIPOS>SUBSTRUCTURE
     1 RES1        1 GROUP             0 ****  ****    0  
     2 RES2       71 GROUP             0 ****  ****    0  
@<TRIPOS>CRYSIN
    9.2203    9.4569   20.8570   85.5100   89.6600   67.1000     2     1
