@<TRIPOS>MOLECULE
YOSYOV
    87    94     1     0     0
SMALL
NO_CHARGES
****
Generated from the CSD

@<TRIPOS>ATOM
     1 C1      -4.7881   7.6023   7.3521   C.ar      1 RES1   0.0000
     2 H1      -4.4396   7.9109   6.5471   H         1 RES1   0.0000
     3 C2      -5.0737   5.9142   8.8622   C.ar      1 RES1   0.0000
     4 H2      -4.9198   5.0365   9.1308   H         1 RES1   0.0000
     5 C3      -5.5237   8.4760   8.1119   C.ar      1 RES1   0.0000
     6 H3      -5.6579   9.3486   7.8186   H         1 RES1   0.0000
     7 C4      -5.8379   6.7237   9.6802   C.ar      1 RES1   0.0000
     8 H4      -6.1970   6.3810  10.4672   H         1 RES1   0.0000
     9 C5      -6.0724   8.0552   9.3292   C.ar      1 RES1   0.0000
    10 C6      -6.8183   8.9429  10.2269   C.2       1 RES1   0.0000
    11 C7      -6.9474  10.2513  10.0047   C.2       1 RES1   0.0000
    12 C8      -7.5539  11.2502  10.8853   C.ar      1 RES1   0.0000
    13 C9      -7.4016  12.5918  10.5485   C.ar      1 RES1   0.0000
    14 H5      -6.9765  12.8262   9.7557   H         1 RES1   0.0000
    15 C10     -8.2509  10.9647  12.0619   C.ar      1 RES1   0.0000
    16 H6      -8.3943  10.0850  12.3240   H         1 RES1   0.0000
    17 C11     -7.8801  13.5736  11.3896   C.ar      1 RES1   0.0000
    18 H7      -7.7395  14.4633  11.1584   H         1 RES1   0.0000
    19 C12     -8.7233  12.0097  12.8276   C.ar      1 RES1   0.0000
    20 H8      -9.1988  11.8083  13.6005   H         1 RES1   0.0000
    21 C13     -0.8817   6.7127   6.8889   C.ar      1 RES1   0.0000
    22 C14      0.2643   7.3358   7.3635   C.ar      1 RES1   0.0000
    23 C15      0.8282   6.8349   8.5347   C.ar      1 RES1   0.0000
    24 H9       1.5727   7.2477   8.9089   H         1 RES1   0.0000
    25 C16      0.2785   5.7298   9.1316   C.ar      1 RES1   0.0000
    26 H10      0.6549   5.3892   9.9112   H         1 RES1   0.0000
    27 C17     -0.8374   5.1177   8.5761   C.ar      1 RES1   0.0000
    28 C18     -1.4335   3.8974   9.2004   C.3       1 RES1   0.0000
    29 H11     -0.7794   3.1950   9.2188   H         1 RES1   0.0000
    30 H12     -2.1929   3.6138   8.6870   H         1 RES1   0.0000
    31 H13     -1.7115   4.0997  10.0962   H         1 RES1   0.0000
    32 C19      0.9360   8.5050   6.6979   C.2       1 RES1   0.0000
    33 C20     -1.6363   7.2627   5.6934   C.2       1 RES1   0.0000
    34 N1      -4.5402   6.3257   7.6994   N.ar      1 RES1   0.0000
    35 N2      -8.5337  13.3035  12.5185   N.ar      1 RES1   0.0000
    36 N3      -1.4251   5.6237   7.4745   N.ar      1 RES1   0.0000
    37 O1      -2.6683   6.6151   5.3224   O.co2     1 RES1   0.0000
    38 O2      -1.2175   8.2902   5.1665   O.co2     1 RES1   0.0000
    39 O3       1.7385   8.3714   5.8060   O.2       1 RES1   0.0000
    40 O4       0.6416   9.6470   7.2828   O.3       1 RES1   0.0000
    41 Fe1     -3.3228   5.0095   6.3762   Fe        1 RES1   0.0000
    42 H14     -7.1895   8.5361  11.0169   H         1 RES1   0.0000
    43 H15     -6.5573  10.6200   9.2532   H         1 RES1   0.0000
    44 H16      1.2068  10.4597   6.7971   H         1 RES1   0.0000
    45 C1B     -1.8575   2.4166   5.4004   C.ar      1 RES1   0.0000
    46 H1B     -2.2060   2.1080   6.2054   H         1 RES1   0.0000
    47 C2B     -1.5719   4.1047   3.8903   C.ar      1 RES1   0.0000
    48 H2B     -1.7258   4.9824   3.6217   H         1 RES1   0.0000
    49 C3B     -1.1219   1.5429   4.6406   C.ar      1 RES1   0.0000
    50 H3B     -0.9878   0.6703   4.9339   H         1 RES1   0.0000
    51 C4B     -0.8077   3.2952   3.0723   C.ar      1 RES1   0.0000
    52 H4B     -0.4486   3.6379   2.2852   H         1 RES1   0.0000
    53 C5B     -0.5732   1.9637   3.4233   C.ar      1 RES1   0.0000
    54 C6B      0.1727   1.0760   2.5256   C.2       1 RES1   0.0000
    55 C7B      0.3018  -0.2324   2.7478   C.2       1 RES1   0.0000
    56 C8B      0.9083  -1.2313   1.8672   C.ar      1 RES1   0.0000
    57 C9B      0.7560  -2.5729   2.2040   C.ar      1 RES1   0.0000
    58 H5B      0.3309  -2.8073   2.9968   H         1 RES1   0.0000
    59 C10B     1.6053  -0.9458   0.6905   C.ar      1 RES1   0.0000
    60 H6B      1.7487  -0.0661   0.4285   H         1 RES1   0.0000
    61 C11B     1.2345  -3.5547   1.3629   C.ar      1 RES1   0.0000
    62 H7B      1.0939  -4.4444   1.5941   H         1 RES1   0.0000
    63 C12B     2.0777  -1.9908  -0.0751   C.ar      1 RES1   0.0000
    64 H8B      2.5532  -1.7894  -0.8480   H         1 RES1   0.0000
    65 C13B    -5.7639   3.3062   5.8636   C.ar      1 RES1   0.0000
    66 C14B    -6.9099   2.6831   5.3889   C.ar      1 RES1   0.0000
    67 C15B    -7.4738   3.1840   4.2178   C.ar      1 RES1   0.0000
    68 H9B     -8.2183   2.7712   3.8436   H         1 RES1   0.0000
    69 C16B    -6.9241   4.2891   3.6209   C.ar      1 RES1   0.0000
    70 H10B    -7.3005   4.6297   2.8413   H         1 RES1   0.0000
    71 C17B    -5.8082   4.9012   4.1764   C.ar      1 RES1   0.0000
    72 C18B    -5.2121   6.1215   3.5521   C.3       1 RES1   0.0000
    73 H11B    -5.8662   6.8239   3.5337   H         1 RES1   0.0000
    74 H12B    -4.4527   6.4051   4.0655   H         1 RES1   0.0000
    75 H13B    -4.9341   5.9192   2.6563   H         1 RES1   0.0000
    76 C19B    -7.5816   1.5139   6.0546   C.2       1 RES1   0.0000
    77 C20B    -5.0093   2.7562   7.0591   C.2       1 RES1   0.0000
    78 N1B     -2.1054   3.6932   5.0530   N.ar      1 RES1   0.0000
    79 N2B      1.8881  -3.2846   0.2340   N.ar      1 RES1   0.0000
    80 N3B     -5.2205   4.3952   5.2780   N.ar      1 RES1   0.0000
    81 O1B     -3.9773   3.4038   7.4301   O.co2     1 RES1   0.0000
    82 O2B     -5.4281   1.7287   7.5859   O.co2     1 RES1   0.0000
    83 O3B     -8.3841   1.6475   6.9465   O.2       1 RES1   0.0000
    84 O4B     -7.2872   0.3719   5.4697   O.3       1 RES1   0.0000
    85 H14B     0.5439   1.4828   1.7356   H         1 RES1   0.0000
    86 H15B    -0.0883  -0.6011   3.4993   H         1 RES1   0.0000
    87 H16B    -7.8524  -0.4408   5.9554   H         1 RES1   0.0000
@<TRIPOS>BOND
     1     1     2    1
     2     3     4    1
     3     5     1   ar
     4     6     5    1
     5     7     3   ar
     6     8     7    1
     7     9     5   ar
     8    10     9    1
     9    11    10    2
    10    12    11    1
    11    13    12   ar
    12    14    13    1
    13    15    12   ar
    14    16    15    1
    15    17    13   ar
    16    18    17    1
    17    19    15   ar
    18    20    19    1
    19    21    22   ar
    20    22    23   ar
    21    23    24    1
    22    25    23   ar
    23    26    25    1
    24    27    25   ar
    25    28    27    1
    26    29    28    1
    27    30    28    1
    28    31    28    1
    29    32    22    1
    30    33    21    1
    31    34     1   ar
    32    35    17   ar
    33    36    21   ar
    34    37    33    1
    35    38    33    2
    36    39    32    2
    37    40    32    1
    38    41    34    1
    39    42    10    1
    40    43    11    1
    41    44    40    1
    42    45    46    1
    43    47    48    1
    44    49    45   ar
    45    50    49    1
    46    51    47   ar
    47    52    51    1
    48    53    49   ar
    49    54    53    1
    50    55    54    2
    51    56    55    1
    52    57    56   ar
    53    58    57    1
    54    59    56   ar
    55    60    59    1
    56    61    57   ar
    57    62    61    1
    58    63    59   ar
    59    64    63    1
    60    65    66   ar
    61    66    67   ar
    62    67    68    1
    63    69    67   ar
    64    70    69    1
    65    71    69   ar
    66    72    71    1
    67    73    72    1
    68    74    72    1
    69    75    72    1
    70    76    66    1
    71    77    65    1
    72    78    41    1
    73    79    61   ar
    74    80    41    1
    75    81    41    1
    76    82    77    2
    77    83    76    2
    78    84    76    1
    79    85    54    1
    80    86    55    1
    81    87    84    1
    82     3    34   ar
    83     7     9   ar
    84    19    35   ar
    85    27    36   ar
    86    36    41    1
    87    37    41    1
    88    45    78   ar
    89    47    78   ar
    90    51    53   ar
    91    63    79   ar
    92    65    80   ar
    93    71    80   ar
    94    77    81    1
@<TRIPOS>SUBSTRUCTURE
     1 RES1        1 GROUP             0 ****  ****    0  
@<TRIPOS>CRYSIN
   13.9264   10.0189   14.3802   90.0000  117.5250   90.0000   231     1
