@<TRIPOS>MOLECULE
YOWZUH
    83    88     1     0     0
SMALL
NO_CHARGES
****
Generated from the CSD

@<TRIPOS>ATOM
     1 Fe1      5.7709   6.3585   3.4004   Fe        1 RES1   0.0000
     2 N1       8.4281   5.3709   4.5128   N.pl3     1 RES1   0.0000
     3 N2       8.7081   7.0349   3.1658   N.pl3     1 RES1   0.0000
     4 N3       6.3038   5.1310   0.7014   N.pl3     1 RES1   0.0000
     5 N4       5.4267   7.0746   0.4313   N.pl3     1 RES1   0.0000
     6 C1       7.7346   6.2700   3.7417   C.3       1 RES1   0.0000
     7 C2       5.8054   6.1907   1.4028   C.3       1 RES1   0.0000
     8 C3       4.9471   7.6990   4.8815   C.3       1 RES1   0.0000
     9 H1       5.2119   8.6487   4.7147   H         1 RES1   0.0000
    10 C4       3.9817   7.2479   3.9522   C.3       1 RES1   0.0000
    11 H2       3.6379   7.9440   3.3214   H         1 RES1   0.0000
    12 C5       3.7630   5.8997   3.5498   C.3       1 RES1   0.0000
    13 H3       3.2901   5.7944   2.6753   H         1 RES1   0.0000
    14 C6       4.1847   4.6875   4.1488   C.3       1 RES1   0.0000
    15 H4       4.1256   3.9130   3.5187   H         1 RES1   0.0000
    16 C7       4.2673   4.2694   5.5094   C.2       1 RES1   0.0000
    17 H5       4.1353   3.3344   5.6138   H         1 RES1   0.0000
    18 C8       4.4932   4.9080   6.7006   C.2       1 RES1   0.0000
    19 H6       4.2311   4.4157   7.4693   H         1 RES1   0.0000
    20 C9       5.0541   6.1819   6.9747   C.2       1 RES1   0.0000
    21 H7       5.2625   6.3148   7.8927   H         1 RES1   0.0000
    22 C10      5.3531   7.2482   6.1947   C.2       1 RES1   0.0000
    23 H8       5.9741   7.8373   6.6056   H         1 RES1   0.0000
    24 C11      9.8075   5.5573   4.3912   C.2       1 RES1   0.0000
    25 C12      9.9853   6.6093   3.5472   C.2       1 RES1   0.0000
    26 C13     10.8568   4.7257   5.0487   C.3       1 RES1   0.0000
    27 H9      11.7404   5.0024   4.7282   H         1 RES1   0.0000
    28 H10     10.7101   3.7821   4.8294   H         1 RES1   0.0000
    29 H11     10.8081   4.8472   6.0203   H         1 RES1   0.0000
    30 C14     11.2698   7.2312   3.1125   C.3       1 RES1   0.0000
    31 H12     12.0204   6.7431   3.5120   H         1 RES1   0.0000
    32 H13     11.2947   8.1671   3.4040   H         1 RES1   0.0000
    33 H14     11.3378   7.1924   2.1355   H         1 RES1   0.0000
    34 C15      7.7260   4.4286   5.4014   C.3       1 RES1   0.0000
    35 H15      6.7503   4.6355   5.3270   H         1 RES1   0.0000
    36 C16      8.1050   4.6311   6.8639   C.3       1 RES1   0.0000
    37 H16      9.0198   4.3139   7.0105   H         1 RES1   0.0000
    38 H17      7.4878   4.1264   7.4339   H         1 RES1   0.0000
    39 H18      8.0498   5.5842   7.0864   H         1 RES1   0.0000
    40 C17      7.9005   2.9689   4.9773   C.3       1 RES1   0.0000
    41 H19      7.6569   2.8721   4.0332   H         1 RES1   0.0000
    42 H20      7.3209   2.3986   5.5244   H         1 RES1   0.0000
    43 H21      8.8347   2.7024   5.1027   H         1 RES1   0.0000
    44 C18      8.3856   8.1275   2.2362   C.3       1 RES1   0.0000
    45 H22      7.3888   8.1962   2.2148   H         1 RES1   0.0000
    46 C19      8.9002   9.4750   2.7257   C.3       1 RES1   0.0000
    47 H23      8.6043   9.6217   3.6486   H         1 RES1   0.0000
    48 H24      8.5483  10.1874   2.1524   H         1 RES1   0.0000
    49 H25      9.8800   9.4827   2.6922   H         1 RES1   0.0000
    50 C20      8.8260   7.8099   0.8115   C.3       1 RES1   0.0000
    51 H26      9.8047   7.7824   0.7709   H         1 RES1   0.0000
    52 H27      8.4923   8.5032   0.2041   H         1 RES1   0.0000
    53 H28      8.4632   6.9403   0.5432   H         1 RES1   0.0000
    54 C21      6.2583   5.3549  -0.6795   C.2       1 RES1   0.0000
    55 C22      5.6987   6.5745  -0.8529   C.2       1 RES1   0.0000
    56 C23      6.7388   4.4055  -1.7268   C.3       1 RES1   0.0000
    57 H29      6.1055   3.6625  -1.8083   H         1 RES1   0.0000
    58 H30      7.6202   4.0585  -1.4743   H         1 RES1   0.0000
    59 H31      6.8063   4.8731  -2.5859   H         1 RES1   0.0000
    60 C24      5.4110   7.2813  -2.1404   C.3       1 RES1   0.0000
    61 H32      6.0828   7.9796  -2.2873   H         1 RES1   0.0000
    62 H33      4.5207   7.6886  -2.0984   H         1 RES1   0.0000
    63 H34      5.4412   6.6381  -2.8794   H         1 RES1   0.0000
    64 C25      6.8014   3.9253   1.3894   C.3       1 RES1   0.0000
    65 H35      6.6502   4.0795   2.3666   H         1 RES1   0.0000
    66 C26      5.9905   2.6835   1.0259   C.3       1 RES1   0.0000
    67 H36      5.0385   2.8592   1.1774   H         1 RES1   0.0000
    68 H37      6.2766   1.9315   1.5856   H         1 RES1   0.0000
    69 H38      6.1356   2.4632   0.0827   H         1 RES1   0.0000
    70 C27      8.3006   3.7362   1.2187   C.3       1 RES1   0.0000
    71 H39      8.5009   3.5510   0.2783   H         1 RES1   0.0000
    72 H40      8.6000   2.9837   1.7712   H         1 RES1   0.0000
    73 H41      8.7668   4.5514   1.4979   H         1 RES1   0.0000
    74 C28      4.7320   8.3360   0.7493   C.3       1 RES1   0.0000
    75 H42      4.7898   8.4451   1.7425   H         1 RES1   0.0000
    76 C29      5.3906   9.5618   0.1493   C.3       1 RES1   0.0000
    77 H43      6.3520   9.5425   0.3391   H         1 RES1   0.0000
    78 H44      4.9965  10.3684   0.5415   H         1 RES1   0.0000
    79 H45      5.2496   9.5668  -0.8198   H         1 RES1   0.0000
    80 C30      3.2480   8.2480   0.4170   C.3       1 RES1   0.0000
    81 H46      3.1351   8.1574  -0.5516   H         1 RES1   0.0000
    82 H47      2.7960   9.0609   0.7237   H         1 RES1   0.0000
    83 H48      2.8584   7.4688   0.8653   H         1 RES1   0.0000
@<TRIPOS>BOND
     1     1     6    1
     2     2     6    1
     3     3     6    1
     4     4     7    1
     5     5     7    1
     6     7     1    1
     7     8     1   un
     8     9     8    1
     9    10     1   un
    10    11    10    1
    11    12     1   un
    12    13    12    1
    13    14     1   un
    14    15    14    1
    15    16    14    1
    16    17    16    1
    17    18    16    2
    18    19    18    1
    19    20    18    1
    20    21    20    1
    21    22     8    1
    22    23    22    1
    23    24     2    1
    24    25     3    1
    25    26    24    1
    26    27    26    1
    27    28    26    1
    28    29    26    1
    29    30    25    1
    30    31    30    1
    31    32    30    1
    32    33    30    1
    33    34     2    1
    34    35    34    1
    35    36    34    1
    36    37    36    1
    37    38    36    1
    38    39    36    1
    39    40    34    1
    40    41    40    1
    41    42    40    1
    42    43    40    1
    43    44     3    1
    44    45    44    1
    45    46    44    1
    46    47    46    1
    47    48    46    1
    48    49    46    1
    49    50    44    1
    50    51    50    1
    51    52    50    1
    52    53    50    1
    53    54     4    1
    54    55     5    1
    55    56    54    1
    56    57    56    1
    57    58    56    1
    58    59    56    1
    59    60    55    1
    60    61    60    1
    61    62    60    1
    62    63    60    1
    63    64     4    1
    64    65    64    1
    65    66    64    1
    66    67    66    1
    67    68    66    1
    68    69    66    1
    69    70    64    1
    70    71    70    1
    71    72    70    1
    72    73    70    1
    73    74     5    1
    74    75    74    1
    75    76    74    1
    76    77    76    1
    77    78    76    1
    78    79    76    1
    79    80    74    1
    80    81    80    1
    81    82    80    1
    82    83    80    1
    83     8    10   un
    84    10    12   un
    85    12    14   un
    86    20    22    2
    87    24    25    2
    88    54    55    2
@<TRIPOS>SUBSTRUCTURE
     1 RES1        1 GROUP             0 ****  ****    0  
@<TRIPOS>CRYSIN
   10.7661   16.1628   16.8683   90.0000   90.0000   90.0000    19     1
