@<TRIPOS>MOLECULE
YOXHEZ
    82    87     1     0     0
SMALL
NO_CHARGES
****
Generated from the CSD

@<TRIPOS>ATOM
     1 C1      12.5865   0.7351  12.2647   C.ar      1 RES1   0.0000
     2 C2      13.6620   0.9216  13.1414   C.ar      1 RES1   0.0000
     3 C3      13.4681   1.4471  14.3938   C.ar      1 RES1   0.0000
     4 C4      12.1613   1.7738  14.7643   C.ar      1 RES1   0.0000
     5 C5      11.1471   1.5470  13.8903   C.ar      1 RES1   0.0000
     6 C6      14.6128   1.6848  15.3288   C.3       1 RES1   0.0000
     7 H1      15.3770   1.1338  15.0567   H         1 RES1   0.0000
     8 H2      14.3454   1.4459  16.2403   H         1 RES1   0.0000
     9 H3      14.8671   2.6308  15.3006   H         1 RES1   0.0000
    10 C7      10.4092   2.5857   9.0543   C.ar      1 RES1   0.0000
    11 C8      10.2928   3.7134   8.2241   C.ar      1 RES1   0.0000
    12 C9      10.5823   4.9666   8.7244   C.ar      1 RES1   0.0000
    13 C10     10.9729   5.0763  10.0487   C.ar      1 RES1   0.0000
    14 C11     11.0313   3.9523  10.8336   C.ar      1 RES1   0.0000
    15 C12     10.4801   6.1796   7.8504   C.3       1 RES1   0.0000
    16 H4      10.2540   5.9078   6.9373   H         1 RES1   0.0000
    17 H5      11.3387   6.6526   7.8457   H         1 RES1   0.0000
    18 H6       9.7828   6.7745   8.1975   H         1 RES1   0.0000
    19 C13      8.4851  -0.5047  11.5959   C.ar      1 RES1   0.0000
    20 C14      7.3777  -1.0679  12.2361   C.ar      1 RES1   0.0000
    21 C15      6.3513  -0.2877  12.7020   C.ar      1 RES1   0.0000
    22 C16      6.4446   1.0948  12.5066   C.ar      1 RES1   0.0000
    23 C17      7.5399   1.6031  11.8843   C.ar      1 RES1   0.0000
    24 C18      5.1812  -0.8899  13.4353   C.3       1 RES1   0.0000
    25 H7       5.3096  -1.8579  13.5182   H         1 RES1   0.0000
    26 H8       4.3564  -0.7120  12.9381   H         1 RES1   0.0000
    27 H9       5.1159  -0.4925  14.3297   H         1 RES1   0.0000
    28 C19     15.1816  -1.1033  10.5381   C.3       1 RES1   0.0000
    29 H10     15.5062  -0.8912  11.4387   H         1 RES1   0.0000
    30 H11     15.9392  -1.1447   9.9190   H         1 RES1   0.0000
    31 H12     14.7228  -1.9701  10.5522   H         1 RES1   0.0000
    32 C20     14.8702   1.8543  10.0065   C.3       1 RES1   0.0000
    33 H13     14.2226   2.5735   9.8517   H         1 RES1   0.0000
    34 H14     15.5528   1.8725   9.3029   H         1 RES1   0.0000
    35 H15     15.2992   1.9823  10.8790   H         1 RES1   0.0000
    36 C21     13.4440  -0.1487   8.2491   C.3       1 RES1   0.0000
    37 H16     12.9370  -0.9875   8.2382   H         1 RES1   0.0000
    38 H17     14.2288  -0.2328   7.6675   H         1 RES1   0.0000
    39 H18     12.8756   0.5803   7.9255   H         1 RES1   0.0000
    40 C22     10.6643   0.9850   5.8226   C.3       1 RES1   0.0000
    41 H19     10.8220   1.9493   5.7522   H         1 RES1   0.0000
    42 H20     10.2242   0.6656   5.0064   H         1 RES1   0.0000
    43 H21     11.5192   0.5206   5.9336   H         1 RES1   0.0000
    44 C23      7.8966   1.3837   6.9733   C.3       1 RES1   0.0000
    45 H22      7.3211   1.2471   7.7535   H         1 RES1   0.0000
    46 H23      7.4956   0.9521   6.1900   H         1 RES1   0.0000
    47 H24      7.9939   2.3431   6.8029   H         1 RES1   0.0000
    48 C24      9.4237  -1.1972   7.4971   C.3       1 RES1   0.0000
    49 H25     10.3155  -1.5836   7.6222   H         1 RES1   0.0000
    50 H26      9.0099  -1.5800   6.6950   H         1 RES1   0.0000
    51 H27      8.8672  -1.3995   8.2788   H         1 RES1   0.0000
    52 C25     11.6301  -3.0319  10.4177   C.3       1 RES1   0.0000
    53 H28     11.4723  -2.9063   9.4593   H         1 RES1   0.0000
    54 H29     11.9419  -3.9474  10.5819   H         1 RES1   0.0000
    55 H30     12.3128  -2.3968  10.7226   H         1 RES1   0.0000
    56 C26     10.3524  -3.0587  13.1555   C.3       1 RES1   0.0000
    57 H31     11.0554  -2.4601  13.4838   H         1 RES1   0.0000
    58 H32     10.6295  -3.9901  13.2837   H         1 RES1   0.0000
    59 H33      9.5243  -2.8941  13.6527   H         1 RES1   0.0000
    60 C27      8.7618  -3.9194  10.7289   C.3       1 RES1   0.0000
    61 H34      7.9970  -3.9133  11.3418   H         1 RES1   0.0000
    62 H35      9.1360  -4.8228  10.6804   H         1 RES1   0.0000
    63 H36      8.4651  -3.6415   9.8361   H         1 RES1   0.0000
    64 N1      11.3351   1.0265  12.6778   N.ar      1 RES1   0.0000
    65 N2      12.5834   0.2999  10.9739   N.2       1 RES1   0.0000
    66 N3      10.7542   2.7479  10.3508   N.ar      1 RES1   0.0000
    67 N4      10.2313   1.2691   8.7629   N.2       1 RES1   0.0000
    68 N5       8.5446   0.8461  11.4379   N.ar      1 RES1   0.0000
    69 N6       9.6000  -1.0972  11.1044   N.2       1 RES1   0.0000
    70 Si1     13.9954   0.2182   9.9795   Si        1 RES1   0.0000
    71 Si2      9.5674   0.6393   7.2996   Si        1 RES1   0.0000
    72 Si3     10.0611  -2.7409  11.3455   Si        1 RES1   0.0000
    73 Fe1     10.5900   0.6328  10.6829   Fe        1 RES1   0.0000
    74 H37     14.4749   0.6949  12.8990   H         1 RES1   0.0000
    75 H38     11.9897   2.0603  15.6196   H         1 RES1   0.0000
    76 H39     10.0238   3.5842   7.2860   H         1 RES1   0.0000
    77 H40     11.2151   5.8761  10.4600   H         1 RES1   0.0000
    78 H41     11.2363   3.9865  11.7467   H         1 RES1   0.0000
    79 H42      7.3604  -1.9628  12.3972   H         1 RES1   0.0000
    80 H43      5.8118   1.6580  12.8365   H         1 RES1   0.0000
    81 H44      7.6782   2.5113  11.7327   H         1 RES1   0.0000
    82 H45     10.3015   1.7189  14.0889   H         1 RES1   0.0000
@<TRIPOS>BOND
     1     1     2   ar
     2     2     3   ar
     3     3     4   ar
     4     4     5   ar
     5     5    64   ar
     6     6     3    1
     7     7     6    1
     8     8     6    1
     9     9     6    1
    10    10    11   ar
    11    11    12   ar
    12    12    13   ar
    13    13    14   ar
    14    14    66   ar
    15    15    12    1
    16    16    15    1
    17    17    15    1
    18    18    15    1
    19    19    20   ar
    20    20    21   ar
    21    21    22   ar
    22    22    23   ar
    23    23    68   ar
    24    24    21    1
    25    25    24    1
    26    26    24    1
    27    27    24    1
    28    28    29    1
    29    30    28    1
    30    31    28    1
    31    32    33    1
    32    34    32    1
    33    35    32    1
    34    36    37    1
    35    38    36    1
    36    39    36    1
    37    40    41    1
    38    42    40    1
    39    43    40    1
    40    44    45    1
    41    46    44    1
    42    47    44    1
    43    48    49    1
    44    50    48    1
    45    51    48    1
    46    52    53    1
    47    54    52    1
    48    55    52    1
    49    56    57    1
    50    58    56    1
    51    59    56    1
    52    60    61    1
    53    62    60    1
    54    63    60    1
    55    64     1   ar
    56    65     1    1
    57    66    10   ar
    58    67    10    1
    59    68    19   ar
    60    69    19    1
    61    70    28    1
    62    71    40    1
    63    72    52    1
    64    73    64    1
    65    74     2    1
    66    75     4    1
    67    76    11    1
    68    77    13    1
    69    78    14    1
    70    79    20    1
    71    80    22    1
    72    81    23    1
    73    82     5    1
    74    32    70    1
    75    36    70    1
    76    44    71    1
    77    48    71    1
    78    56    72    1
    79    60    72    1
    80    65    70    1
    81    65    73    1
    82    66    73    1
    83    67    71    1
    84    67    73    1
    85    68    73    1
    86    69    72    1
    87    69    73    1
@<TRIPOS>SUBSTRUCTURE
     1 RES1        1 GROUP             0 ****  ****    0  
@<TRIPOS>CRYSIN
   17.6410   12.1910   16.1570   90.0000  104.6010   90.0000    14     1
