@<TRIPOS>MOLECULE
YOXHUP
   101   106     1     0     0
SMALL
NO_CHARGES
****
Generated from the CSD

@<TRIPOS>ATOM
     1 Fe1      8.8410   4.1214   2.8719   Fe        1 RES1   0.0000
     2 Si1      6.6813   3.5732   5.6664   Si        1 RES1   0.0000
     3 Si2      9.5877   0.5970   2.6962   Si        1 RES1   0.0000
     4 N1       6.9219   3.7813   1.7580   N.ar      1 RES1   0.0000
     5 N2      10.6425   4.0654   4.1799   N.ar      1 RES1   0.0000
     6 N3       7.0657   3.7667   4.0096   N.2       1 RES1   0.0000
     7 N4       9.8271   2.2322   3.1501   N.2       1 RES1   0.0000
     8 N5       9.9429   4.5168   0.9523   N.ar      1 RES1   0.0000
     9 N6       8.6365   6.3444   3.1000   N.ar      1 RES1   0.0000
    10 C1       6.2879   3.5079   2.9467   C.ar      1 RES1   0.0000
    11 C2       4.9697   2.9977   2.9253   C.ar      1 RES1   0.0000
    12 H1       4.5230   2.8230   3.7460   H         1 RES1   0.0000
    13 C3       4.3197   2.7517   1.7351   C.ar      1 RES1   0.0000
    14 C4       5.0010   3.0304   0.5409   C.ar      1 RES1   0.0000
    15 H2       4.5867   2.8740  -0.2986   H         1 RES1   0.0000
    16 C5       6.2749   3.5305   0.6065   C.ar      1 RES1   0.0000
    17 H3       6.7279   3.7114  -0.2089   H         1 RES1   0.0000
    18 C6       2.9247   2.1948   1.7150   C.3       1 RES1   0.0000
    19 H4       2.5946   2.1056   2.6334   H         1 RES1   0.0000
    20 H5       2.9305   1.3155   1.2826   H         1 RES1   0.0000
    21 H6       2.3381   2.8006   1.2143   H         1 RES1   0.0000
    22 C7      10.7280   2.7054   4.0220   C.ar      1 RES1   0.0000
    23 C8      11.6982   1.9877   4.7755   C.ar      1 RES1   0.0000
    24 H7      11.7660   1.0460   4.6738   H         1 RES1   0.0000
    25 C9      12.5385   2.6351   5.6471   C.ar      1 RES1   0.0000
    26 C10     12.4195   4.0172   5.7877   C.ar      1 RES1   0.0000
    27 H8      12.9839   4.4971   6.3834   H         1 RES1   0.0000
    28 C11     11.4629   4.6715   5.0433   C.ar      1 RES1   0.0000
    29 H9      11.3819   5.6119   5.1490   H         1 RES1   0.0000
    30 C12     13.5801   1.8733   6.4464   C.3       1 RES1   0.0000
    31 H10     13.3735   0.9166   6.4236   H         1 RES1   0.0000
    32 H11     13.5728   2.1873   7.3741   H         1 RES1   0.0000
    33 H12     14.4667   2.0256   6.0568   H         1 RES1   0.0000
    34 C13     10.9686   3.7600   0.6065   C.ar      1 RES1   0.0000
    35 H13     11.1879   3.0251   1.1688   H         1 RES1   0.0000
    36 C14     11.7436   3.9660  -0.5141   C.ar      1 RES1   0.0000
    37 H14     12.4503   3.3639  -0.7176   H         1 RES1   0.0000
    38 C15     11.4999   5.0442  -1.3468   C.ar      1 RES1   0.0000
    39 C16     10.4103   5.8291  -1.0081   C.ar      1 RES1   0.0000
    40 H15     10.1747   6.5723  -1.5503   H         1 RES1   0.0000
    41 C17      9.6649   5.5335   0.1151   C.ar      1 RES1   0.0000
    42 H16      8.9121   6.0803   0.3093   H         1 RES1   0.0000
    43 C18     12.4151   5.4253  -2.5049   C.3       1 RES1   0.0000
    44 C19     11.6124   5.8250  -3.7406   C.3       1 RES1   0.0000
    45 H17     11.0858   5.0582  -4.0499   H         1 RES1   0.0000
    46 H18     12.2251   6.1076  -4.4502   H         1 RES1   0.0000
    47 H19     11.0111   6.5639  -3.5144   H         1 RES1   0.0000
    48 C20     13.2377   6.6334  -2.0591   C.3       1 RES1   0.0000
    49 H20     12.6360   7.3531  -1.7779   H         1 RES1   0.0000
    50 H21     13.7930   6.9435  -2.8048   H         1 RES1   0.0000
    51 H22     13.8134   6.3762  -1.3080   H         1 RES1   0.0000
    52 C21     13.3744   4.3084  -2.8784   C.3       1 RES1   0.0000
    53 H23     13.9385   4.0910  -2.1086   H         1 RES1   0.0000
    54 H24     13.9380   4.5984  -3.6268   H         1 RES1   0.0000
    55 H25     12.8633   3.5138  -3.1435   H         1 RES1   0.0000
    56 C22      7.4759   6.8658   3.5037   C.ar      1 RES1   0.0000
    57 H26      6.7545   6.2730   3.6831   H         1 RES1   0.0000
    58 C23      7.2704   8.2067   3.6737   C.ar      1 RES1   0.0000
    59 H27      6.4204   8.5110   3.9696   H         1 RES1   0.0000
    60 C24      8.2667   9.1306   3.4260   C.ar      1 RES1   0.0000
    61 C25      9.4707   8.5853   3.0467   C.ar      1 RES1   0.0000
    62 H28     10.2118   9.1575   2.8824   H         1 RES1   0.0000
    63 C26      9.6190   7.2248   2.9001   C.ar      1 RES1   0.0000
    64 H29     10.4705   6.8929   2.6415   H         1 RES1   0.0000
    65 C27      8.0302  10.6251   3.6041   C.3       1 RES1   0.0000
    66 C28      9.0730  11.4601   2.9400   C.3       1 RES1   0.0000
    67 H30      9.1019  11.2477   1.9841   H         1 RES1   0.0000
    68 H31      9.9457  11.2733   3.3417   H         1 RES1   0.0000
    69 H32      8.8548  12.4090   3.0565   H         1 RES1   0.0000
    70 C29      6.6749  10.9972   3.0284   C.3       1 RES1   0.0000
    71 H33      6.4992  11.9472   3.1944   H         1 RES1   0.0000
    72 H34      5.9787  10.4566   3.4568   H         1 RES1   0.0000
    73 H35      6.6727  10.8280   2.0631   H         1 RES1   0.0000
    74 C30      7.9999  10.9437   5.0821   C.3       1 RES1   0.0000
    75 H36      8.8877  10.7915   5.4677   H         1 RES1   0.0000
    76 H37      7.3459  10.3647   5.5279   H         1 RES1   0.0000
    77 H38      7.7453  11.8822   5.2093   H         1 RES1   0.0000
    78 C31      8.1193   4.2624   6.6083   C.3       1 RES1   0.0000
    79 H39      8.9245   3.7411   6.4035   H         1 RES1   0.0000
    80 H40      7.9344   4.2123   7.5696   H         1 RES1   0.0000
    81 H41      8.2613   5.1967   6.3513   H         1 RES1   0.0000
    82 C32      5.1702   4.5536   6.1732   C.3       1 RES1   0.0000
    83 H42      5.3074   5.4992   5.9604   H         1 RES1   0.0000
    84 H43      5.0243   4.4529   7.1372   H         1 RES1   0.0000
    85 H44      4.3867   4.2205   5.6886   H         1 RES1   0.0000
    86 C33      8.2468   0.5659   1.4285   C.3       1 RES1   0.0000
    87 H45      7.4283   0.9473   1.8101   H         1 RES1   0.0000
    88 H46      8.0795  -0.3582   1.1514   H         1 RES1   0.0000
    89 H47      8.5210   1.0951   0.6507   H         1 RES1   0.0000
    90 C34      9.0925  -0.4899   4.1342   C.3       1 RES1   0.0000
    91 H48      9.7880  -0.4541   4.8251   H         1 RES1   0.0000
    92 H49      8.9876  -1.4131   3.8250   H         1 RES1   0.0000
    93 H50      8.2442  -0.1714   4.5078   H         1 RES1   0.0000
    94 C35      6.3787   1.7951   6.1344   C.3       1 RES1   0.0000
    95 H51      5.6755   1.4217   5.5641   H         1 RES1   0.0000
    96 H52      6.0983   1.7469   7.0729   H         1 RES1   0.0000
    97 H53      7.2044   1.2802   6.0153   H         1 RES1   0.0000
    98 C36     11.1181  -0.1497   1.9319   C.3       1 RES1   0.0000
    99 H54     11.4103   0.4041   1.1781   H         1 RES1   0.0000
   100 H55     10.9179  -1.0537   1.6146   H         1 RES1   0.0000
   101 H56     11.8325  -0.1903   2.6040   H         1 RES1   0.0000
@<TRIPOS>BOND
     1     1     4    1
     2     2     6    1
     3     3     7    1
     4     4    10   ar
     5     5     1    1
     6     6     1    1
     7     7     1    1
     8     8     1    1
     9     9     1    1
    10    10     6    1
    11    11    10   ar
    12    12    11    1
    13    13    11   ar
    14    14    13   ar
    15    15    14    1
    16    16     4   ar
    17    17    16    1
    18    18    13    1
    19    19    18    1
    20    20    18    1
    21    21    18    1
    22    22     5   ar
    23    23    22   ar
    24    24    23    1
    25    25    23   ar
    26    26    25   ar
    27    27    26    1
    28    28     5   ar
    29    29    28    1
    30    30    25    1
    31    31    30    1
    32    32    30    1
    33    33    30    1
    34    34     8   ar
    35    35    34    1
    36    36    34   ar
    37    37    36    1
    38    38    36   ar
    39    39    38   ar
    40    40    39    1
    41    41     8   ar
    42    42    41    1
    43    43    38    1
    44    44    43    1
    45    45    44    1
    46    46    44    1
    47    47    44    1
    48    48    43    1
    49    49    48    1
    50    50    48    1
    51    51    48    1
    52    52    43    1
    53    53    52    1
    54    54    52    1
    55    55    52    1
    56    56     9   ar
    57    57    56    1
    58    58    56   ar
    59    59    58    1
    60    60    58   ar
    61    61    60   ar
    62    62    61    1
    63    63     9   ar
    64    64    63    1
    65    65    60    1
    66    66    65    1
    67    67    66    1
    68    68    66    1
    69    69    66    1
    70    70    65    1
    71    71    70    1
    72    72    70    1
    73    73    70    1
    74    74    65    1
    75    75    74    1
    76    76    74    1
    77    77    74    1
    78    78     2    1
    79    79    78    1
    80    80    78    1
    81    81    78    1
    82    82     2    1
    83    83    82    1
    84    84    82    1
    85    85    82    1
    86    86     3    1
    87    87    86    1
    88    88    86    1
    89    89    86    1
    90    90     3    1
    91    91    90    1
    92    92    90    1
    93    93    90    1
    94    94     2    1
    95    95    94    1
    96    96    94    1
    97    97    94    1
    98    98     3    1
    99    99    98    1
   100   100    98    1
   101   101    98    1
   102     7    22    1
   103    14    16   ar
   104    26    28   ar
   105    39    41   ar
   106    61    63   ar
@<TRIPOS>SUBSTRUCTURE
     1 RES1        1 GROUP             0 ****  ****    0  
@<TRIPOS>CRYSIN
   11.4380   13.1750   13.6440   88.3740   79.0040   73.1920     2     1
