@<TRIPOS>MOLECULE
YOXXAN
    93   100     3     0     0
SMALL
NO_CHARGES
****
Generated from the CSD

@<TRIPOS>ATOM
     1 Fe1      7.1756   1.8339   8.0831   Fe        1 RES1   0.0000
     2 S1       2.5552   2.0366   9.2480   S.2       1 RES1   0.0000
     3 O1       7.2014  -0.0980   7.7492   O.3       1 RES1   0.0000
     4 O2       7.2426   2.2707   6.1907   O.3       1 RES1   0.0000
     5 N1       9.2446   1.4918   8.3762   N.2       1 RES1   0.0000
     6 N2       7.3125   1.8146  10.3015   N.3       1 RES1   0.0000
     7 H1       6.8387   0.9803  10.5829   H         1 RES1   0.0000
     8 N3       7.5024   3.9603   8.2420   N.2       1 RES1   0.0000
     9 N4       5.1221   1.8940   8.3203   N.2       1 RES1   0.0000
    10 C1       7.9850  -0.5126   6.7636   C.ar      1 RES1   0.0000
    11 C2       7.4299  -1.4536   5.8457   C.ar      1 RES1   0.0000
    12 H2       6.5609  -1.8022   6.0058   H         1 RES1   0.0000
    13 C3       8.1185  -1.8619   4.7467   C.ar      1 RES1   0.0000
    14 H3       7.7280  -2.5038   4.1654   H         1 RES1   0.0000
    15 C4       9.4041  -1.3510   4.4505   C.ar      1 RES1   0.0000
    16 C5      10.0518  -1.6755   3.2315   C.ar      1 RES1   0.0000
    17 H4       9.6478  -2.3043   2.6451   H         1 RES1   0.0000
    18 C6      11.2365  -1.1084   2.8820   C.ar      1 RES1   0.0000
    19 H5      11.6588  -1.3398   2.0630   H         1 RES1   0.0000
    20 C7      11.8286  -0.1727   3.7521   C.ar      1 RES1   0.0000
    21 H6      12.6422   0.2500   3.5028   H         1 RES1   0.0000
    22 C8      11.2470   0.1361   4.9532   C.ar      1 RES1   0.0000
    23 H7      11.6766   0.7584   5.5281   H         1 RES1   0.0000
    24 C9      10.0180  -0.4490   5.3630   C.ar      1 RES1   0.0000
    25 C10      9.3143  -0.0777   6.5754   C.ar      1 RES1   0.0000
    26 C11      9.9600   0.6934   7.6439   C.2       1 RES1   0.0000
    27 C12     11.4137   0.4752   7.8871   C.ar      1 RES1   0.0000
    28 C13     11.9290  -0.8227   7.9257   C.ar      1 RES1   0.0000
    29 H8      11.3436  -1.5677   7.8570   H         1 RES1   0.0000
    30 C14     13.2960  -1.0257   8.0642   C.ar      1 RES1   0.0000
    31 H9      13.6422  -1.9091   8.1107   H         1 RES1   0.0000
    32 C15     14.1521   0.0544   8.1346   C.ar      1 RES1   0.0000
    33 H10     15.0875  -0.0870   8.2225   H         1 RES1   0.0000
    34 C16     13.6481   1.3507   8.0772   C.ar      1 RES1   0.0000
    35 H11     14.2415   2.0916   8.1134   H         1 RES1   0.0000
    36 C17     12.2869   1.5630   7.9677   C.ar      1 RES1   0.0000
    37 H12     11.9447   2.4490   7.9473   H         1 RES1   0.0000
    38 C18      9.7143   2.0636   9.6411   C.3       1 RES1   0.0000
    39 H13      9.7366   3.0519   9.5862   H         1 RES1   0.0000
    40 H14     10.6254   1.7378   9.8502   H         1 RES1   0.0000
    41 C19      8.7277   1.6119  10.7141   C.3       1 RES1   0.0000
    42 H15      8.8752   0.6522  10.9075   H         1 RES1   0.0000
    43 H16      8.8989   2.1193  11.5468   H         1 RES1   0.0000
    44 C20      6.6283   2.9146  11.0387   C.3       1 RES1   0.0000
    45 H17      6.8094   2.8032  12.0057   H         1 RES1   0.0000
    46 H18      5.6518   2.8199  10.9064   H         1 RES1   0.0000
    47 C21      7.0340   4.3225  10.6328   C.3       1 RES1   0.0000
    48 H19      8.0141   4.4145  10.7379   H         1 RES1   0.0000
    49 H20      6.6041   4.9679  11.2484   H         1 RES1   0.0000
    50 C22      6.6585   4.6840   9.2038   C.3       1 RES1   0.0000
    51 H21      5.7080   4.4571   9.0451   H         1 RES1   0.0000
    52 H22      6.7678   5.6588   9.0706   H         1 RES1   0.0000
    53 C23      8.3325   4.5860   7.4656   C.2       1 RES1   0.0000
    54 C24      8.5196   6.0793   7.5419   C.ar      1 RES1   0.0000
    55 C25      8.2135   6.8527   6.4289   C.ar      1 RES1   0.0000
    56 H23      7.8923   6.4353   5.6382   H         1 RES1   0.0000
    57 C26      8.3740   8.2333   6.4646   C.ar      1 RES1   0.0000
    58 H24      8.1373   8.7571   5.7082   H         1 RES1   0.0000
    59 C27      8.8784   8.8481   7.6003   C.ar      1 RES1   0.0000
    60 H25      9.0127   9.7885   7.6165   H         1 RES1   0.0000
    61 C28      9.1849   8.0796   8.7110   C.ar      1 RES1   0.0000
    62 H26      9.5264   8.4985   9.4923   H         1 RES1   0.0000
    63 C29      8.9991   6.7082   8.6952   C.ar      1 RES1   0.0000
    64 H27      9.1975   6.1937   9.4688   H         1 RES1   0.0000
    65 C30      9.0109   3.8826   6.3719   C.ar      1 RES1   0.0000
    66 C31     10.3221   4.2580   5.8974   C.ar      1 RES1   0.0000
    67 C32     11.2277   5.0429   6.6575   C.ar      1 RES1   0.0000
    68 H28     10.9451   5.4081   7.4876   H         1 RES1   0.0000
    69 C33     12.5036   5.2838   6.2155   C.ar      1 RES1   0.0000
    70 H29     13.0878   5.8122   6.7466   H         1 RES1   0.0000
    71 C34     12.9633   4.7664   4.9961   C.ar      1 RES1   0.0000
    72 H30     13.8477   4.9457   4.6991   H         1 RES1   0.0000
    73 C35     12.1179   3.9978   4.2393   C.ar      1 RES1   0.0000
    74 H31     12.4224   3.6465   3.4108   H         1 RES1   0.0000
    75 C36     10.8016   3.7191   4.6696   C.ar      1 RES1   0.0000
    76 C37      9.9687   2.8364   3.9332   C.ar      1 RES1   0.0000
    77 H32     10.2521   2.5330   3.0786   H         1 RES1   0.0000
    78 C38      8.7751   2.4169   4.4262   C.ar      1 RES1   0.0000
    79 H33      8.2381   1.8250   3.9126   H         1 RES1   0.0000
    80 C39      8.3169   2.8522   5.7020   C.ar      1 RES1   0.0000
    81 C40      4.0816   1.9644   8.7077   C.1       1 RES1   0.0000
    82 N5      14.3131   4.1814  13.1692   N.1       2 RES2   0.0000
    83 C41     14.8350   4.5315  14.1168   C.1       2 RES2   0.0000
    84 C42     15.5171   5.0155  15.2951   C.3       2 RES2   0.0000
    85 H34     15.5242   5.9958  15.2883   H         2 RES2   0.0000
    86 H35     16.4385   4.6824  15.2998   H         2 RES2   0.0000
    87 H36     15.0506   4.6981  16.0963   H         2 RES2   0.0000
    88 N6      11.4842   4.8284  10.6202   N.1       3 RES3   0.0000
    89 C43     12.5963   4.7938  10.3830   C.1       3 RES3   0.0000
    90 C44     13.9826   4.7384  10.0242   C.3       3 RES3   0.0000
    91 H37     14.0649   4.6443   9.0523   H         3 RES3   0.0000
    92 H38     14.4025   3.9688  10.4632   H         3 RES3   0.0000
    93 H39     14.4279   5.5618  10.3122   H         3 RES3   0.0000
@<TRIPOS>BOND
     1     1     3    1
     2     2    81    2
     3     3    10    1
     4     4     1    1
     5     5     1    1
     6     6     1    1
     7     7     6    1
     8     8     1    1
     9     9     1    1
    10    10    11   ar
    11    11    12    1
    12    13    11   ar
    13    14    13    1
    14    15    13   ar
    15    16    15   ar
    16    17    16    1
    17    18    16   ar
    18    19    18    1
    19    20    18   ar
    20    21    20    1
    21    22    20   ar
    22    23    22    1
    23    24    15   ar
    24    25    10   ar
    25    26     5    2
    26    27    26    1
    27    28    27   ar
    28    29    28    1
    29    30    28   ar
    30    31    30    1
    31    32    30   ar
    32    33    32    1
    33    34    32   ar
    34    35    34    1
    35    36    27   ar
    36    37    36    1
    37    38     5    1
    38    39    38    1
    39    40    38    1
    40    41     6    1
    41    42    41    1
    42    43    41    1
    43    44     6    1
    44    45    44    1
    45    46    44    1
    46    47    44    1
    47    48    47    1
    48    49    47    1
    49    50     8    1
    50    51    50    1
    51    52    50    1
    52    53     8    2
    53    54    53    1
    54    55    54   ar
    55    56    55    1
    56    57    55   ar
    57    58    57    1
    58    59    57   ar
    59    60    59    1
    60    61    59   ar
    61    62    61    1
    62    63    54   ar
    63    64    63    1
    64    65    53    1
    65    66    65   ar
    66    67    66   ar
    67    68    67    1
    68    69    67   ar
    69    70    69    1
    70    71    69   ar
    71    72    71    1
    72    73    71   ar
    73    74    73    1
    74    75    66   ar
    75    76    75   ar
    76    77    76    1
    77    78    76   ar
    78    79    78    1
    79    80     4    1
    80    81     9    2
    81    22    24   ar
    82    24    25   ar
    83    25    26    1
    84    34    36   ar
    85    38    41    1
    86    47    50    1
    87    61    63   ar
    88    65    80   ar
    89    73    75   ar
    90    78    80   ar
    91    82    83    3
    92    83    84    1
    93    84    85    1
    94    86    84    1
    95    87    84    1
    96    88    89    3
    97    89    90    1
    98    90    91    1
    99    92    90    1
   100    93    90    1
@<TRIPOS>SUBSTRUCTURE
     1 RES1        1 GROUP             0 ****  ****    0  
     2 RES2       82 GROUP             0 ****  ****    0  
     3 RES3       88 GROUP             0 ****  ****    0  
@<TRIPOS>CRYSIN
   14.4030   13.2616   19.8161   90.0000   95.6120   90.0000    14     1
