@<TRIPOS>MOLECULE
YUFYUV
   125   131     1     0     0
SMALL
NO_CHARGES
****
Generated from the CSD

@<TRIPOS>ATOM
     1 Fe1     -0.7516   3.8769   3.3893   Fe        1 RES1   0.0000
     2 Cl1      0.9112   7.9390   3.5509   Cl        1 RES1   0.0000
     3 Cl2      1.2728   1.7534   0.1040   Cl        1 RES1   0.0000
     4 Cl3     -1.9965   1.9365  -0.3593   Cl        1 RES1   0.0000
     5 B1       2.3019   3.8759   3.7458   B         1 RES1   0.0000
     6 O1       1.8195   5.2472   3.3670   O.3       1 RES1   0.0000
     7 O2       1.8852   2.8910   2.6776   O.3       1 RES1   0.0000
     8 O3      -3.1478   3.4826   1.7490   O.3       1 RES1   0.0000
     9 N1       0.4684   5.3530   3.2846   N.2       1 RES1   0.0000
    10 N2       0.5653   2.9289   2.3695   N.2       1 RES1   0.0000
    11 N3      -1.7860   3.3523   1.8561   N.2       1 RES1   0.0000
    12 C1      -0.0380   6.5489   3.3852   C.2       1 RES1   0.0000
    13 C2       0.1967   2.4589   1.1930   C.2       1 RES1   0.0000
    14 C3      -1.2087   2.6342   0.9436   C.2       1 RES1   0.0000
    15 C4       3.8660   3.8404   3.8529   C.3       1 RES1   0.0000
    16 H1       4.1580   4.4565   4.5714   H         1 RES1   0.0000
    17 H2       4.1547   2.9265   4.1024   H         1 RES1   0.0000
    18 C5       4.5519   4.2417   2.5392   C.3       1 RES1   0.0000
    19 H3       4.1546   3.7132   1.8031   H         1 RES1   0.0000
    20 H4       4.3573   5.1958   2.3616   H         1 RES1   0.0000
    21 C6       6.0540   4.0442   2.5203   C.3       1 RES1   0.0000
    22 H5       6.2597   3.1177   2.8009   H         1 RES1   0.0000
    23 H6       6.4672   4.6595   3.1764   H         1 RES1   0.0000
    24 C7       6.6633   4.2969   1.1442   C.3       1 RES1   0.0000
    25 H7       6.2265   3.6974   0.4894   H         1 RES1   0.0000
    26 H8       6.4626   5.2290   0.8771   H         1 RES1   0.0000
    27 C8       8.1612   4.0821   1.0696   C.3       1 RES1   0.0000
    28 H9       8.6039   4.7116   1.6919   H         1 RES1   0.0000
    29 H10      8.3656   3.1635   1.3747   H         1 RES1   0.0000
    30 C9       8.7393   4.2780  -0.3186   C.3       1 RES1   0.0000
    31 H11      8.5272   5.1943  -0.6250   H         1 RES1   0.0000
    32 H12      8.2969   3.6445  -0.9381   H         1 RES1   0.0000
    33 C10     10.2401   4.0750  -0.4026   C.3       1 RES1   0.0000
    34 H13     10.4559   3.1627  -0.0827   H         1 RES1   0.0000
    35 H14     10.6821   4.7172   0.2088   H         1 RES1   0.0000
    36 C11     10.8224   4.2519  -1.8017   C.3       1 RES1   0.0000
    37 H15     10.3989   3.5947  -2.4077   H         1 RES1   0.0000
    38 H16     10.5878   5.1563  -2.1298   H         1 RES1   0.0000
    39 C12     12.3208   4.0805  -1.8749   C.3       1 RES1   0.0000
    40 H17     12.7451   4.7361  -1.2662   H         1 RES1   0.0000
    41 H18     12.5526   3.1753  -1.5482   H         1 RES1   0.0000
    42 C13     12.9018   4.2590  -3.2578   C.3       1 RES1   0.0000
    43 H19     12.6526   5.1571  -3.5926   H         1 RES1   0.0000
    44 H20     12.4932   3.5900  -3.8624   H         1 RES1   0.0000
    45 C14     14.4088   4.1176  -3.3296   C.3       1 RES1   0.0000
    46 H21     14.6576   3.2219  -2.9907   H         1 RES1   0.0000
    47 H22     14.8185   4.7890  -2.7277   H         1 RES1   0.0000
    48 C15     14.9983   4.2914  -4.7206   C.3       1 RES1   0.0000
    49 H23     14.7290   5.1785  -5.0676   H         1 RES1   0.0000
    50 H24     14.6053   3.6058  -5.3171   H         1 RES1   0.0000
    51 C16     16.5088   4.1840  -4.7938   C.3       1 RES1   0.0000
    52 H25     16.7808   3.3033  -4.4345   H         1 RES1   0.0000
    53 H26     16.9059   4.8807  -4.2122   H         1 RES1   0.0000
    54 C17     17.0732   4.3380  -6.1969   C.3       1 RES1   0.0000
    55 H27     16.6730   3.6390  -6.7731   H         1 RES1   0.0000
    56 H28     16.7902   5.2164  -6.5548   H         1 RES1   0.0000
    57 C18     18.5782   4.2417  -6.3000   C.3       1 RES1   0.0000
    58 H29     18.8727   3.3673  -5.9393   H         1 RES1   0.0000
    59 H30     18.9857   4.9510  -5.7428   H         1 RES1   0.0000
    60 C19     19.0850   4.3823  -7.7356   C.3       1 RES1   0.0000
    61 H31     20.0636   4.3728  -7.7384   H         1 RES1   0.0000
    62 H32     18.7644   5.2282  -8.1139   H         1 RES1   0.0000
    63 H33     18.7510   3.6366  -8.2752   H         1 RES1   0.0000
    64 Cl1A    -2.4144   7.9390   3.2277   Cl        1 RES1   0.0000
    65 Cl2A    -2.7761   1.7534   6.6745   Cl        1 RES1   0.0000
    66 Cl3A     0.4933   1.9365   7.1378   Cl        1 RES1   0.0000
    67 B1A     -3.8052   3.8759   3.0327   B         1 RES1   0.0000
    68 O1A     -3.3228   5.2472   3.4115   O.3       1 RES1   0.0000
    69 O2A     -3.3884   2.8910   4.1009   O.3       1 RES1   0.0000
    70 O3A      1.6446   3.4826   5.0295   O.3       1 RES1   0.0000
    71 N1A     -1.9716   5.3530   3.4939   N.2       1 RES1   0.0000
    72 N2A     -2.0685   2.9289   4.4090   N.2       1 RES1   0.0000
    73 N3A      0.2827   3.3523   4.9224   N.2       1 RES1   0.0000
    74 C1A     -1.4652   6.5489   3.3933   C.2       1 RES1   0.0000
    75 C2A     -1.6999   2.4589   5.5855   C.2       1 RES1   0.0000
    76 C3A     -0.2945   2.6342   5.8349   C.2       1 RES1   0.0000
    77 C4A     -5.3692   3.8404   2.9256   C.3       1 RES1   0.0000
    78 H1A     -5.6613   4.4565   2.2071   H         1 RES1   0.0000
    79 H2A     -5.6579   2.9265   2.6762   H         1 RES1   0.0000
    80 C5A     -6.0551   4.2417   4.2393   C.3       1 RES1   0.0000
    81 H3A     -5.6578   3.7132   4.9754   H         1 RES1   0.0000
    82 H4A     -5.8605   5.1958   4.4169   H         1 RES1   0.0000
    83 C6A     -7.5572   4.0442   4.2583   C.3       1 RES1   0.0000
    84 H5A     -7.7630   3.1177   3.9776   H         1 RES1   0.0000
    85 H6A     -7.9705   4.6595   3.6021   H         1 RES1   0.0000
    86 C7A     -8.1666   4.2969   5.6343   C.3       1 RES1   0.0000
    87 H7A     -7.7298   3.6974   6.2891   H         1 RES1   0.0000
    88 H8A     -7.9659   5.2290   5.9014   H         1 RES1   0.0000
    89 C8A     -9.6644   4.0821   5.7089   C.3       1 RES1   0.0000
    90 H9A    -10.1072   4.7116   5.0866   H         1 RES1   0.0000
    91 H10A    -9.8688   3.1635   5.4038   H         1 RES1   0.0000
    92 C9A    -10.2425   4.2780   7.0971   C.3       1 RES1   0.0000
    93 H11A   -10.0304   5.1943   7.4035   H         1 RES1   0.0000
    94 H12A    -9.8001   3.6445   7.7167   H         1 RES1   0.0000
    95 C10A   -11.7434   4.0750   7.1812   C.3       1 RES1   0.0000
    96 H13A   -11.9592   3.1627   6.8612   H         1 RES1   0.0000
    97 H14A   -12.1854   4.7172   6.5697   H         1 RES1   0.0000
    98 C11A   -12.3257   4.2519   8.5802   C.3       1 RES1   0.0000
    99 H15A   -11.9022   3.5947   9.1862   H         1 RES1   0.0000
   100 H16A   -12.0911   5.1563   8.9083   H         1 RES1   0.0000
   101 C12A   -13.8241   4.0805   8.6535   C.3       1 RES1   0.0000
   102 H17A   -14.2484   4.7361   8.0447   H         1 RES1   0.0000
   103 H18A   -14.0559   3.1753   8.3267   H         1 RES1   0.0000
   104 C13A   -14.4050   4.2590  10.0363   C.3       1 RES1   0.0000
   105 H19A   -14.1558   5.1571  10.3711   H         1 RES1   0.0000
   106 H20A   -13.9964   3.5900  10.6409   H         1 RES1   0.0000
   107 C14A   -15.9121   4.1176  10.1081   C.3       1 RES1   0.0000
   108 H21A   -16.1609   3.2219   9.7692   H         1 RES1   0.0000
   109 H22A   -16.3217   4.7890   9.5062   H         1 RES1   0.0000
   110 C15A   -16.5015   4.2914  11.4991   C.3       1 RES1   0.0000
   111 H23A   -16.2322   5.1785  11.8461   H         1 RES1   0.0000
   112 H24A   -16.1086   3.6058  12.0956   H         1 RES1   0.0000
   113 C16A   -18.0121   4.1840  11.5723   C.3       1 RES1   0.0000
   114 H25A   -18.2840   3.3033  11.2130   H         1 RES1   0.0000
   115 H26A   -18.4092   4.8807  10.9907   H         1 RES1   0.0000
   116 C17A   -18.5764   4.3380  12.9754   C.3       1 RES1   0.0000
   117 H27A   -18.1763   3.6390  13.5516   H         1 RES1   0.0000
   118 H28A   -18.2934   5.2164  13.3333   H         1 RES1   0.0000
   119 C18A   -20.0815   4.2417  13.0785   C.3       1 RES1   0.0000
   120 H29A   -20.3760   3.3673  12.7178   H         1 RES1   0.0000
   121 H30A   -20.4890   4.9510  12.5213   H         1 RES1   0.0000
   122 C19A   -20.5882   4.3823  14.5142   C.3       1 RES1   0.0000
   123 H31A   -21.5668   4.3728  14.5169   H         1 RES1   0.0000
   124 H32A   -20.2677   5.2282  14.8924   H         1 RES1   0.0000
   125 H33A   -20.2542   3.6366  15.0537   H         1 RES1   0.0000
@<TRIPOS>BOND
     1     1     9    1
     2     2    12    1
     3     3    13    1
     4     4    14    1
     5     5     6    1
     6     6     9    1
     7     7     5    1
     8     8    11    1
     9     9    12    2
    10    10     1    1
    11    11     1    1
    12    12    74    1
    13    13    10    2
    14    14    11    2
    15    15     5    1
    16    16    15    1
    17    17    15    1
    18    18    15    1
    19    19    18    1
    20    20    18    1
    21    21    18    1
    22    22    21    1
    23    23    21    1
    24    24    21    1
    25    25    24    1
    26    26    24    1
    27    27    24    1
    28    28    27    1
    29    29    27    1
    30    30    27    1
    31    31    30    1
    32    32    30    1
    33    33    30    1
    34    34    33    1
    35    35    33    1
    36    36    33    1
    37    37    36    1
    38    38    36    1
    39    39    36    1
    40    40    39    1
    41    41    39    1
    42    42    39    1
    43    43    42    1
    44    44    42    1
    45    45    42    1
    46    46    45    1
    47    47    45    1
    48    48    45    1
    49    49    48    1
    50    50    48    1
    51    51    48    1
    52    52    51    1
    53    53    51    1
    54    54    51    1
    55    55    54    1
    56    56    54    1
    57    57    54    1
    58    58    57    1
    59    59    57    1
    60    60    57    1
    61    61    60    1
    62    62    60    1
    63    63    60    1
    64    64    74    1
    65    65    75    1
    66    66    76    1
    67    67     8    1
    68    68    67    1
    69    69    67    1
    70    70     5    1
    71    71     1    1
    72    72     1    1
    73    73     1    1
    74    74    71    2
    75    75    72    2
    76    76    73    2
    77    77    67    1
    78    78    77    1
    79    79    77    1
    80    80    77    1
    81    81    80    1
    82    82    80    1
    83    83    80    1
    84    84    83    1
    85    85    83    1
    86    86    83    1
    87    87    86    1
    88    88    86    1
    89    89    86    1
    90    90    89    1
    91    91    89    1
    92    92    89    1
    93    93    92    1
    94    94    92    1
    95    95    92    1
    96    96    95    1
    97    97    95    1
    98    98    95    1
    99    99    98    1
   100   100    98    1
   101   101    98    1
   102   102   101    1
   103   103   101    1
   104   104   101    1
   105   105   104    1
   106   106   104    1
   107   107   104    1
   108   108   107    1
   109   109   107    1
   110   110   107    1
   111   111   110    1
   112   112   110    1
   113   113   110    1
   114   114   113    1
   115   115   113    1
   116   116   113    1
   117   117   116    1
   118   118   116    1
   119   119   116    1
   120   120   119    1
   121   121   119    1
   122   122   119    1
   123   123   122    1
   124   124   122    1
   125   125   122    1
   126     7    10    1
   127    13    14    1
   128    68    71    1
   129    69    72    1
   130    70    73    1
   131    75    76    1
@<TRIPOS>SUBSTRUCTURE
     1 RES1        1 GROUP             0 ****  ****    0  
@<TRIPOS>CRYSIN
   44.7390    7.8988   13.8864   90.0000  102.5040   90.0000    15     1
