@<TRIPOS>MOLECULE
YUFYUV03
   125   131     1     0     0
SMALL
NO_CHARGES
****
Generated from the CSD

@<TRIPOS>ATOM
     1 Fe1     -0.7457   3.8805   3.3953   Fe        1 RES1   0.0000
     2 Cl1      0.9133   7.9407   3.5527   Cl        1 RES1   0.0000
     3 Cl2      1.2721   1.7593   0.1047   Cl        1 RES1   0.0000
     4 Cl3     -1.9955   1.9413  -0.3546   Cl        1 RES1   0.0000
     5 B1       2.3160   3.8653   3.7525   B         1 RES1   0.0000
     6 O1       1.8280   5.2402   3.3698   O.3       1 RES1   0.0000
     7 O2       1.8865   2.8937   2.6733   O.3       1 RES1   0.0000
     8 O3      -3.1393   3.4827   1.7570   O.3       1 RES1   0.0000
     9 N1       0.4680   5.3501   3.2887   N.2       1 RES1   0.0000
    10 N2       0.5613   2.9395   2.3665   N.2       1 RES1   0.0000
    11 N3      -1.7856   3.3491   1.8691   N.2       1 RES1   0.0000
    12 C1      -0.0376   6.5408   3.3831   C.2       1 RES1   0.0000
    13 C2       0.1922   2.4699   1.2078   C.2       1 RES1   0.0000
    14 C3      -1.1914   2.6446   0.9550   C.2       1 RES1   0.0000
    15 C4       3.8646   3.8456   3.8513   C.3       1 RES1   0.0000
    16 H1       4.1506   4.4749   4.5606   H         1 RES1   0.0000
    17 H2       4.1586   2.9387   4.1165   H         1 RES1   0.0000
    18 C5       4.5576   4.2298   2.5364   C.3       1 RES1   0.0000
    19 H3       4.1691   3.6875   1.8063   H         1 RES1   0.0000
    20 H4       4.3560   5.1794   2.3414   H         1 RES1   0.0000
    21 C6       6.0614   4.0440   2.5231   C.3       1 RES1   0.0000
    22 H5       6.2767   3.1206   2.8086   H         1 RES1   0.0000
    23 H6       6.4689   4.6654   3.1767   H         1 RES1   0.0000
    24 C7       6.6708   4.2931   1.1526   C.3       1 RES1   0.0000
    25 H7       6.2331   3.6906   0.4998   H         1 RES1   0.0000
    26 H8       6.4669   5.2236   0.8828   H         1 RES1   0.0000
    27 C8       8.1646   4.0843   1.0748   C.3       1 RES1   0.0000
    28 H9       8.3759   3.1672   1.3826   H         1 RES1   0.0000
    29 H10      8.6075   4.7176   1.6936   H         1 RES1   0.0000
    30 C9       8.7448   4.2780  -0.3217   C.3       1 RES1   0.0000
    31 H11      8.5276   5.1920  -0.6329   H         1 RES1   0.0000
    32 H12      8.3082   3.6392  -0.9385   H         1 RES1   0.0000
    33 C10     10.2410   4.0812  -0.3998   C.3       1 RES1   0.0000
    34 H13     10.4596   3.1720  -0.0747   H         1 RES1   0.0000
    35 H14     10.6796   4.7295   0.2078   H         1 RES1   0.0000
    36 C11     10.8259   4.2520  -1.7976   C.3       1 RES1   0.0000
    37 H15     10.4021   3.5918  -2.4012   H         1 RES1   0.0000
    38 H16     10.5934   5.1548  -2.1309   H         1 RES1   0.0000
    39 C12     12.3271   4.0820  -1.8661   C.3       1 RES1   0.0000
    40 H17     12.7475   4.7406  -1.2590   H         1 RES1   0.0000
    41 H18     12.5577   3.1783  -1.5360   H         1 RES1   0.0000
    42 C13     12.9129   4.2575  -3.2595   C.3       1 RES1   0.0000
    43 H19     12.6655   5.1548  -3.5963   H         1 RES1   0.0000
    44 H20     12.5001   3.5886  -3.8625   H         1 RES1   0.0000
    45 C14     14.4065   4.1120  -3.3301   C.3       1 RES1   0.0000
    46 H21     14.6548   3.2147  -2.9933   H         1 RES1   0.0000
    47 H22     14.8157   4.7817  -2.7271   H         1 RES1   0.0000
    48 C15     14.9944   4.2875  -4.7249   C.3       1 RES1   0.0000
    49 H23     14.7256   5.1762  -5.0685   H         1 RES1   0.0000
    50 H24     14.5976   3.6052  -5.3212   H         1 RES1   0.0000
    51 C16     16.5062   4.1737  -4.8051   C.3       1 RES1   0.0000
    52 H25     16.7746   3.2890  -4.4520   H         1 RES1   0.0000
    53 H26     16.9072   4.8647  -4.2197   H         1 RES1   0.0000
    54 C17     17.0711   4.3310  -6.1931   C.3       1 RES1   0.0000
    55 H27     16.6753   3.6321  -6.7716   H         1 RES1   0.0000
    56 H28     16.7831   5.2086  -6.5489   H         1 RES1   0.0000
    57 C18     18.5753   4.2440  -6.3058   C.3       1 RES1   0.0000
    58 H29     18.8742   3.3736  -5.9405   H         1 RES1   0.0000
    59 H30     18.9804   4.9580  -5.7517   H         1 RES1   0.0000
    60 C19     19.0885   4.3808  -7.7359   C.3       1 RES1   0.0000
    61 H31     20.0697   4.3532  -7.7359   H         1 RES1   0.0000
    62 H32     18.7871   5.2347  -8.1121   H         1 RES1   0.0000
    63 H33     18.7390   3.6440  -8.2805   H         1 RES1   0.0000
    64 Cl1A    -2.4047   7.9407   3.2379   Cl        1 RES1   0.0000
    65 Cl2A    -2.7635   1.7593   6.6859   Cl        1 RES1   0.0000
    66 Cl3A     0.5041   1.9413   7.1453   Cl        1 RES1   0.0000
    67 B1A     -3.8074   3.8653   3.0381   B         1 RES1   0.0000
    68 O1A     -3.3194   5.2402   3.4209   O.3       1 RES1   0.0000
    69 O2A     -3.3779   2.8937   4.1173   O.3       1 RES1   0.0000
    70 O3A      1.6479   3.4827   5.0336   O.3       1 RES1   0.0000
    71 N1A     -1.9594   5.3501   3.5019   N.2       1 RES1   0.0000
    72 N2A     -2.0527   2.9395   4.4241   N.2       1 RES1   0.0000
    73 N3A      0.2942   3.3491   4.9216   N.2       1 RES1   0.0000
    74 C1A     -1.4539   6.5408   3.4075   C.2       1 RES1   0.0000
    75 C2A     -1.6836   2.4699   5.5829   C.2       1 RES1   0.0000
    76 C3A     -0.3000   2.6446   5.8356   C.2       1 RES1   0.0000
    77 C4A     -5.3560   3.8456   2.9394   C.3       1 RES1   0.0000
    78 H1A     -5.6420   4.4749   2.2301   H         1 RES1   0.0000
    79 H2A     -5.6500   2.9387   2.6742   H         1 RES1   0.0000
    80 C5A     -6.0490   4.2298   4.2542   C.3       1 RES1   0.0000
    81 H3A     -5.6605   3.6875   4.9843   H         1 RES1   0.0000
    82 H4A     -5.8474   5.1794   4.4492   H         1 RES1   0.0000
    83 C6A     -7.5528   4.0440   4.2675   C.3       1 RES1   0.0000
    84 H5A     -7.7681   3.1206   3.9820   H         1 RES1   0.0000
    85 H6A     -7.9603   4.6654   3.6140   H         1 RES1   0.0000
    86 C7A     -8.1622   4.2931   5.6380   C.3       1 RES1   0.0000
    87 H7A     -7.7246   3.6906   6.2909   H         1 RES1   0.0000
    88 H8A     -7.9583   5.2236   5.9079   H         1 RES1   0.0000
    89 C8A     -9.6560   4.0843   5.7158   C.3       1 RES1   0.0000
    90 H9A     -9.8673   3.1672   5.4081   H         1 RES1   0.0000
    91 H10A   -10.0989   4.7176   5.0971   H         1 RES1   0.0000
    92 C9A    -10.2362   4.2780   7.1124   C.3       1 RES1   0.0000
    93 H11A   -10.0190   5.1920   7.4235   H         1 RES1   0.0000
    94 H12A    -9.7996   3.6392   7.7291   H         1 RES1   0.0000
    95 C10A   -11.7324   4.0812   7.1905   C.3       1 RES1   0.0000
    96 H13A   -11.9510   3.1720   6.8653   H         1 RES1   0.0000
    97 H14A   -12.1710   4.7295   6.5829   H         1 RES1   0.0000
    98 C11A   -12.3173   4.2520   8.5883   C.3       1 RES1   0.0000
    99 H15A   -11.8935   3.5918   9.1918   H         1 RES1   0.0000
   100 H16A   -12.0848   5.1548   8.9216   H         1 RES1   0.0000
   101 C12A   -13.8185   4.0820   8.6567   C.3       1 RES1   0.0000
   102 H17A   -14.2389   4.7406   8.0496   H         1 RES1   0.0000
   103 H18A   -14.0491   3.1783   8.3267   H         1 RES1   0.0000
   104 C13A   -14.4043   4.2575  10.0502   C.3       1 RES1   0.0000
   105 H19A   -14.1569   5.1548  10.3870   H         1 RES1   0.0000
   106 H20A   -13.9915   3.5886  10.6532   H         1 RES1   0.0000
   107 C14A   -15.8979   4.1120  10.1208   C.3       1 RES1   0.0000
   108 H21A   -16.1462   3.2147   9.7840   H         1 RES1   0.0000
   109 H22A   -16.3071   4.7817   9.5178   H         1 RES1   0.0000
   110 C15A   -16.4858   4.2875  11.5156   C.3       1 RES1   0.0000
   111 H23A   -16.2170   5.1762  11.8592   H         1 RES1   0.0000
   112 H24A   -16.0890   3.6052  12.1118   H         1 RES1   0.0000
   113 C16A   -17.9976   4.1737  11.5957   C.3       1 RES1   0.0000
   114 H25A   -18.2660   3.2890  11.2426   H         1 RES1   0.0000
   115 H26A   -18.3986   4.8647  11.0104   H         1 RES1   0.0000
   116 C17A   -18.5625   4.3310  12.9837   C.3       1 RES1   0.0000
   117 H27A   -18.1667   3.6321  13.5623   H         1 RES1   0.0000
   118 H28A   -18.2745   5.2086  13.3396   H         1 RES1   0.0000
   119 C18A   -20.0667   4.2440  13.0965   C.3       1 RES1   0.0000
   120 H29A   -20.3656   3.3736  12.7311   H         1 RES1   0.0000
   121 H30A   -20.4718   4.9580  12.5423   H         1 RES1   0.0000
   122 C19A   -20.5799   4.3808  14.5266   C.3       1 RES1   0.0000
   123 H31A   -21.5612   4.3532  14.5266   H         1 RES1   0.0000
   124 H32A   -20.2785   5.2347  14.9028   H         1 RES1   0.0000
   125 H33A   -20.2304   3.6440  15.0712   H         1 RES1   0.0000
@<TRIPOS>BOND
     1     1     9    1
     2     2    12    1
     3     3    13    1
     4     4    14    1
     5     5     6    1
     6     6     9    1
     7     7     5    1
     8     8    11    1
     9     9    12    2
    10    10     1    1
    11    11     1    1
    12    12    74    1
    13    13    10    2
    14    14    11    2
    15    15     5    1
    16    16    15    1
    17    17    15    1
    18    18    15    1
    19    19    18    1
    20    20    18    1
    21    21    18    1
    22    22    21    1
    23    23    21    1
    24    24    21    1
    25    25    24    1
    26    26    24    1
    27    27    24    1
    28    28    27    1
    29    29    27    1
    30    30    27    1
    31    31    30    1
    32    32    30    1
    33    33    30    1
    34    34    33    1
    35    35    33    1
    36    36    33    1
    37    37    36    1
    38    38    36    1
    39    39    36    1
    40    40    39    1
    41    41    39    1
    42    42    39    1
    43    43    42    1
    44    44    42    1
    45    45    42    1
    46    46    45    1
    47    47    45    1
    48    48    45    1
    49    49    48    1
    50    50    48    1
    51    51    48    1
    52    52    51    1
    53    53    51    1
    54    54    51    1
    55    55    54    1
    56    56    54    1
    57    57    54    1
    58    58    57    1
    59    59    57    1
    60    60    57    1
    61    61    60    1
    62    62    60    1
    63    63    60    1
    64    64    74    1
    65    65    75    1
    66    66    76    1
    67    67     8    1
    68    68    67    1
    69    69    67    1
    70    70     5    1
    71    71     1    1
    72    72     1    1
    73    73     1    1
    74    74    71    2
    75    75    72    2
    76    76    73    2
    77    77    67    1
    78    78    77    1
    79    79    77    1
    80    80    77    1
    81    81    80    1
    82    82    80    1
    83    83    80    1
    84    84    83    1
    85    85    83    1
    86    86    83    1
    87    87    86    1
    88    88    86    1
    89    89    86    1
    90    90    89    1
    91    91    89    1
    92    92    89    1
    93    93    92    1
    94    94    92    1
    95    95    92    1
    96    96    95    1
    97    97    95    1
    98    98    95    1
    99    99    98    1
   100   100    98    1
   101   101    98    1
   102   102   101    1
   103   103   101    1
   104   104   101    1
   105   105   104    1
   106   106   104    1
   107   107   104    1
   108   108   107    1
   109   109   107    1
   110   110   107    1
   111   111   110    1
   112   112   110    1
   113   113   110    1
   114   114   113    1
   115   115   113    1
   116   116   113    1
   117   117   116    1
   118   118   116    1
   119   119   116    1
   120   120   119    1
   121   121   119    1
   122   122   119    1
   123   123   122    1
   124   124   122    1
   125   125   122    1
   126     7    10    1
   127    13    14    1
   128    68    71    1
   129    69    72    1
   130    70    73    1
   131    75    76    1
@<TRIPOS>SUBSTRUCTURE
     1 RES1        1 GROUP             0 ****  ****    0  
@<TRIPOS>CRYSIN
   44.7630    7.9062   13.9050   90.0000  102.3870   90.0000    15     1
