@<TRIPOS>MOLECULE
YUJGOB
    98   108     2     0     0
SMALL
USER_CHARGES
****
Generated from the CSD

@<TRIPOS>ATOM
     1 I1      20.4889   9.2364  -3.8000   I         1 RES1   0.0000
     2 I2      20.1685   7.2254   1.8594   I         1 RES1   0.0000
     3 I3      20.1271  -3.0723   4.7941   I         1 RES1   0.0000
     4 I4      21.9816  -0.8997  -0.5264   I         1 RES1   0.0000
     5 Fe1     19.0702   2.8951   0.1785   Fe        1 RES1   1.0000
     6 N1      17.8207   1.3471  -0.5753   N.ar      1 RES1   0.0000
     7 N2      19.3990   2.9257  -1.8746   N.2       1 RES1   0.0000
     8 N3      17.2452   4.0337   0.3062   N.ar      1 RES1   0.0000
     9 N4      18.5722   2.8456   2.1846   N.2       1 RES1   0.0000
    10 O1      20.0159   4.5463   0.2588   O.2       1 RES1   0.0000
    11 O2      20.3239   1.5036   0.5676   O.2       1 RES1   0.0000
    12 C1      16.9323   0.6895   0.1755   C.ar      1 RES1   0.0000
    13 H1      16.6341   1.0914   0.9840   H         1 RES1   0.0000
    14 C2      16.4343  -0.5304  -0.1640   C.ar      1 RES1   0.0000
    15 H2      15.7830  -0.9655   0.3729   H         1 RES1   0.0000
    16 C3      16.9207  -1.1143  -1.3287   C.ar      1 RES1   0.0000
    17 H3      16.6254  -1.9819  -1.5786   H         1 RES1   0.0000
    18 C4      17.8239  -0.4478  -2.1218   C.ar      1 RES1   0.0000
    19 H4      18.1539  -0.8434  -2.9201   H         1 RES1   0.0000
    20 C5      18.2437   0.8128  -1.7310   C.ar      1 RES1   0.0000
    21 C6      19.2163   1.6333  -2.5408   C.2       1 RES1   0.0000
    22 H5      19.6361   1.3598  -3.3468   H         1 RES1   0.0000
    23 C7      19.6564   3.9802  -2.5844   C.2       1 RES1   0.0000
    24 H6      19.6911   3.8874  -3.5287   H         1 RES1   0.0000
    25 C8      19.8966   5.2879  -2.0206   C.2       1 RES1   0.0000
    26 C9      20.0356   6.3577  -2.9278   C.2       1 RES1   0.0000
    27 H7      19.9951   6.1987  -3.8631   H         1 RES1   0.0000
    28 C10     20.2296   7.6374  -2.4473   C.2       1 RES1   0.0000
    29 C11     20.2643   7.8994  -1.0904   C.2       1 RES1   0.0000
    30 H8      20.3540   8.7899  -0.7726   H         1 RES1   0.0000
    31 C12     20.1659   6.8411  -0.2076   C.2       1 RES1   0.0000
    32 C13     20.0298   5.5092  -0.6330   C.2       1 RES1   0.0000
    33 C14     16.5009   4.3962  -0.7329   C.ar      1 RES1   0.0000
    34 H9      16.6949   4.0235  -1.5863   H         1 RES1   0.0000
    35 C15     15.4646   5.2930  -0.6189   C.ar      1 RES1   0.0000
    36 H10     14.9261   5.5080  -1.3697   H         1 RES1   0.0000
    37 C16     15.2301   5.8680   0.5997   C.ar      1 RES1   0.0000
    38 H11     14.5353   6.5091   0.6996   H         1 RES1   0.0000
    39 C17     16.0117   5.5067   1.6900   C.ar      1 RES1   0.0000
    40 H12     15.8698   5.9061   2.5408   H         1 RES1   0.0000
    41 C18     16.9931   4.5539   1.5132   C.ar      1 RES1   0.0000
    42 C19     17.8094   4.0133   2.6510   C.2       1 RES1   0.0000
    43 H13     17.8297   4.3682   3.5326   H         1 RES1   0.0000
    44 C20     18.7734   1.8801   2.9995   C.2       1 RES1   0.0000
    45 H14     18.4347   1.9653   3.8837   H         1 RES1   0.0000
    46 C21     19.4856   0.6640   2.6638   C.2       1 RES1   0.0000
    47 C22     19.4479  -0.3778   3.5928   C.2       1 RES1   0.0000
    48 H15     18.9558  -0.2709   4.3987   H         1 RES1   0.0000
    49 C23     20.1138  -1.5544   3.3545   C.2       1 RES1   0.0000
    50 C24     20.8172  -1.7185   2.1500   C.2       1 RES1   0.0000
    51 H16     21.2544  -2.5416   1.9630   H         1 RES1   0.0000
    52 C25     20.8751  -0.6805   1.2339   C.2       1 RES1   0.0000
    53 C26     20.2209   0.5483   1.4530   C.2       1 RES1   0.0000
    54 B1      27.4350  -3.2933  13.1719   B         2 RES2  -1.0000
    55 C27     28.0892  -3.5630  11.6791   C.ar      2 RES2   0.0000
    56 C28     27.9039  -4.7409  10.9501   C.ar      2 RES2   0.0000
    57 H17     27.3742  -5.4304  11.3332   H         2 RES2   0.0000
    58 C29     28.4598  -4.9559   9.6893   C.ar      2 RES2   0.0000
    59 H18     28.3150  -5.7853   9.2485   H         2 RES2   0.0000
    60 C30     29.2095  -3.9879   9.0832   C.ar      2 RES2   0.0000
    61 H19     29.5627  -4.1291   8.2119   H         2 RES2   0.0000
    62 C31     29.4498  -2.8061   9.7495   C.ar      2 RES2   0.0000
    63 H20     29.9767  -2.1269   9.3497   H         2 RES2   0.0000
    64 C32     28.9027  -2.6204  11.0205   C.ar      2 RES2   0.0000
    65 H21     29.0937  -1.8050  11.4716   H         2 RES2   0.0000
    66 C33     26.9139  -1.7274  13.3307   C.ar      2 RES2   0.0000
    67 C34     26.5983  -0.8675  12.2788   C.ar      2 RES2   0.0000
    68 H22     26.6852  -1.1932  11.3896   H         2 RES2   0.0000
    69 C35     26.1670   0.4401  12.4620   C.ar      2 RES2   0.0000
    70 H23     25.9759   0.9820  11.7048   H         2 RES2   0.0000
    71 C36     26.0078   0.9553  13.7126   C.ar      2 RES2   0.0000
    72 H24     25.7154   1.8508  13.8381   H         2 RES2   0.0000
    73 C37     26.2915   0.1285  14.8107   C.ar      2 RES2   0.0000
    74 H25     26.1902   0.4579  15.6960   H         2 RES2   0.0000
    75 C38     26.7170  -1.1741  14.5954   C.ar      2 RES2   0.0000
    76 H26     26.8878  -1.7211  15.3539   H         2 RES2   0.0000
    77 C39     28.5408  -3.5287  14.3571   C.ar      2 RES2   0.0000
    78 C40     29.8464  -3.0313  14.2610   C.ar      2 RES2   0.0000
    79 H27     30.1185  -2.6166  13.4512   H         2 RES2   0.0000
    80 C41     30.7583  -3.1178  15.3052   C.ar      2 RES2   0.0000
    81 H28     31.6297  -2.7565  15.1963   H         2 RES2   0.0000
    82 C42     30.4167  -3.7169  16.4879   C.ar      2 RES2   0.0000
    83 H29     31.0478  -3.7818  17.1965   H         2 RES2   0.0000
    84 C43     29.1516  -4.2207  16.6288   C.ar      2 RES2   0.0000
    85 H30     28.8940  -4.6354  17.4450   H         2 RES2   0.0000
    86 C44     28.2426  -4.1291  15.5859   C.ar      2 RES2   0.0000
    87 H31     27.3742  -4.4903  15.7127   H         2 RES2   0.0000
    88 C45     26.1207  -4.2779  13.3167   C.ar      2 RES2   0.0000
    89 C46     24.8151  -3.8403  13.0886   C.ar      2 RES2   0.0000
    90 H32     24.6703  -2.9168  12.9182   H         2 RES2   0.0000
    91 C47     23.7237  -4.6900  13.0976   C.ar      2 RES2   0.0000
    92 H33     22.8610  -4.3428  12.9105   H         2 RES2   0.0000
    93 C48     23.8685  -6.0295  13.3756   C.ar      2 RES2   0.0000
    94 H34     23.1158  -6.6070  13.4115   H         2 RES2   0.0000
    95 C49     25.1567  -6.5116  13.6011   C.ar      2 RES2   0.0000
    96 H35     25.2956  -7.4377  13.7677   H         2 RES2   0.0000
    97 C50     26.2365  -5.6492  13.5844   C.ar      2 RES2   0.0000
    98 H36     27.0992  -6.0015  13.7651   H         2 RES2   0.0000
@<TRIPOS>BOND
     1     1    28    1
     2     2    31    1
     3     3    49    1
     4     4    52    1
     5     5     6    1
     6     6    12   ar
     7     7     5    1
     8     8     5    1
     9     9     5    1
    10    10     5    1
    11    11     5    1
    12    12    13    1
    13    14    12   ar
    14    15    14    1
    15    16    14   ar
    16    17    16    1
    17    18    16   ar
    18    19    18    1
    19    20     6   ar
    20    21     7    2
    21    22    21    1
    22    23     7    1
    23    24    23    1
    24    25    23    2
    25    26    25    1
    26    27    26    1
    27    28    26    2
    28    29    28    1
    29    30    29    1
    30    31    29    2
    31    32    10    2
    32    33     8   ar
    33    34    33    1
    34    35    33   ar
    35    36    35    1
    36    37    35   ar
    37    38    37    1
    38    39    37   ar
    39    40    39    1
    40    41     8   ar
    41    42     9    2
    42    43    42    1
    43    44     9    1
    44    45    44    1
    45    46    44    2
    46    47    46    1
    47    48    47    1
    48    49    47    2
    49    50    49    1
    50    51    50    1
    51    52    50    2
    52    53    11    2
    53    18    20   ar
    54    20    21    1
    55    25    32    1
    56    31    32    1
    57    39    41   ar
    58    41    42    1
    59    46    53    1
    60    52    53    1
    61    54    55    1
    62    55    56   ar
    63    56    57    1
    64    58    56   ar
    65    59    58    1
    66    60    58   ar
    67    61    60    1
    68    62    60   ar
    69    63    62    1
    70    64    55   ar
    71    65    64    1
    72    66    54    1
    73    67    66   ar
    74    68    67    1
    75    69    67   ar
    76    70    69    1
    77    71    69   ar
    78    72    71    1
    79    73    71   ar
    80    74    73    1
    81    75    66   ar
    82    76    75    1
    83    77    54    1
    84    78    77   ar
    85    79    78    1
    86    80    78   ar
    87    81    80    1
    88    82    80   ar
    89    83    82    1
    90    84    82   ar
    91    85    84    1
    92    86    77   ar
    93    87    86    1
    94    88    54    1
    95    89    88   ar
    96    90    89    1
    97    91    89   ar
    98    92    91    1
    99    93    91   ar
   100    94    93    1
   101    95    93   ar
   102    96    95    1
   103    97    88   ar
   104    98    97    1
   105    62    64   ar
   106    73    75   ar
   107    84    86   ar
   108    95    97   ar
@<TRIPOS>SUBSTRUCTURE
     1 RES1        1 GROUP             0 ****  ****    0  
     2 RES2       54 GROUP             0 ****  ****    0  
@<TRIPOS>CRYSIN
   28.9490   12.7205   12.8131   90.0000   90.0000   90.0000    33     1
