@<TRIPOS>MOLECULE
YUJGUH
    98   108     2     0     0
SMALL
USER_CHARGES
****
Generated from the CSD

@<TRIPOS>ATOM
     1 I1       8.4866   3.4284  16.4686   I         1 RES1   0.0000
     2 I2       8.8962   5.3660  10.7854   I         1 RES1   0.0000
     3 I3       8.7199  15.3473   7.9420   I         1 RES1   0.0000
     4 I4       7.0528  13.2589  13.3597   I         1 RES1   0.0000
     5 Fe1     10.2273   9.6580  12.6110   Fe        1 RES1   1.0000
     6 N1      11.3060  11.2236  13.0906   N.ar      1 RES1   0.0000
     7 N2       9.8429   9.6606  14.4974   N.2       1 RES1   0.0000
     8 N3      11.8719   8.5601  12.7064   N.ar      1 RES1   0.0000
     9 N4      10.6258   9.6270  10.7284   N.2       1 RES1   0.0000
    10 O1       9.2888   8.0341  12.3375   O.2       1 RES1   0.0000
    11 O2       8.8255  10.8945  12.3528   O.2       1 RES1   0.0000
    12 C1      12.1856  11.8492  12.2892   C.ar      1 RES1   0.0000
    13 H1      12.4026  11.4541  11.4522   H         1 RES1   0.0000
    14 C2      12.7779  13.0283  12.6301   C.ar      1 RES1   0.0000
    15 H2      13.4230  13.4346  12.0628   H         1 RES1   0.0000
    16 C3      12.4114  13.6166  13.8283   C.ar      1 RES1   0.0000
    17 H3      12.7691  14.4616  14.0700   H         1 RES1   0.0000
    18 C4      11.5289  12.9809  14.6717   C.ar      1 RES1   0.0000
    19 H4      11.3002  13.3648  15.5100   H         1 RES1   0.0000
    20 C5      10.9835  11.7645  14.2748   C.ar      1 RES1   0.0000
    21 C6      10.0071  10.9892  15.1169   C.2       1 RES1   0.0000
    22 H5       9.5732  11.2983  15.9043   H         1 RES1   0.0000
    23 C7       9.4823   8.6673  15.1996   C.2       1 RES1   0.0000
    24 H6       9.3533   8.7994  16.1307   H         1 RES1   0.0000
    25 C8       9.2536   7.3287  14.6564   C.2       1 RES1   0.0000
    26 C9       9.0483   6.2568  15.5532   C.2       1 RES1   0.0000
    27 H7       9.0894   6.4151  16.4895   H         1 RES1   0.0000
    28 C10      8.7903   4.9792  15.0928   C.2       1 RES1   0.0000
    29 C11      8.7639   4.7350  13.7380   C.2       1 RES1   0.0000
    30 H8       8.6378   3.8500  13.4187   H         1 RES1   0.0000
    31 C12      8.9252   5.7819  12.8387   C.2       1 RES1   0.0000
    32 C13      9.1598   7.1043  13.2483   C.2       1 RES1   0.0000
    33 C14     12.6225   8.3245  13.7978   C.ar      1 RES1   0.0000
    34 H9      12.3674   8.7159  14.6246   H         1 RES1   0.0000
    35 C15     13.7543   7.5268  13.7520   C.ar      1 RES1   0.0000
    36 H10     14.2733   7.3760  14.5343   H         1 RES1   0.0000
    37 C16     14.1120   6.9585  12.5499   C.ar      1 RES1   0.0000
    38 H11     14.8890   6.4151  12.4863   H         1 RES1   0.0000
    39 C17     13.3145   7.1940  11.4229   C.ar      1 RES1   0.0000
    40 H12     13.5197   6.7803  10.5923   H         1 RES1   0.0000
    41 C18     12.2326   8.0329  11.5349   C.ar      1 RES1   0.0000
    42 C19     11.4174   8.4591  10.3353   C.2       1 RES1   0.0000
    43 H13     11.4174   8.0441   9.4805   H         1 RES1   0.0000
    44 C20     10.2827  10.4845   9.8469   C.2       1 RES1   0.0000
    45 H14     10.5525  10.3349   8.9475   H         1 RES1   0.0000
    46 C21      9.5145  11.6710  10.1382   C.2       1 RES1   0.0000
    47 C22      9.4764  12.6880   9.1790   C.2       1 RES1   0.0000
    48 H15      9.9162  12.5584   8.3471   H         1 RES1   0.0000
    49 C23      8.8138  13.8659   9.4118   C.2       1 RES1   0.0000
    50 C24      8.1394  14.0478  10.6241   C.2       1 RES1   0.0000
    51 H16      7.6791  14.8617  10.7983   H         1 RES1   0.0000
    52 C25      8.1423  13.0133  11.5883   C.2       1 RES1   0.0000
    53 C26      8.8284  11.8181  11.4064   C.2       1 RES1   0.0000
    54 B1       1.6420  15.5759  -0.2798   B         2 RES2  -1.0000
    55 C27      0.9471  15.8638   1.1894   C.ar      2 RES2   0.0000
    56 C28      1.0966  17.0927   1.8864   C.ar      2 RES2   0.0000
    57 H17      1.6420  17.7720   1.5074   H         2 RES2   0.0000
    58 C29      0.4633  17.3370   3.1190   C.ar      2 RES2   0.0000
    59 H18      0.5659  18.1796   3.5452   H         2 RES2   0.0000
    60 C30     -0.3079  16.3586   3.7105   C.ar      2 RES2   0.0000
    61 H19     -0.7242  16.5169   4.5501   H         2 RES2   0.0000
    62 C31     -0.4691  15.1434   3.0669   C.ar      2 RES2   0.0000
    63 H20     -1.0057  14.4654   3.4599   H         2 RES2   0.0000
    64 C32      0.1554  14.9116   1.8419   C.ar      2 RES2   0.0000
    65 H21      0.0381  14.0640   1.4285   H         2 RES2   0.0000
    66 C33      2.1815  14.0279  -0.3956   C.ar      2 RES2   0.0000
    67 C34      2.5568  13.2290   0.7073   C.ar      2 RES2   0.0000
    68 H22      2.4893  13.6004   1.5786   H         2 RES2   0.0000
    69 C35      3.0259  11.9103   0.5750   C.ar      2 RES2   0.0000
    70 H23      3.2341  11.4043   1.3522   H         2 RES2   0.0000
    71 C36      3.1871  11.3457  -0.6691   C.ar      2 RES2   0.0000
    72 H24      3.5214  10.4620  -0.7709   H         2 RES2   0.0000
    73 C37      2.8382  12.1322  -1.7872   C.ar      2 RES2   0.0000
    74 H25      2.9438  11.7732  -2.6598   H         2 RES2   0.0000
    75 C38      2.3515  13.4010  -1.6371   C.ar      2 RES2   0.0000
    76 H26      2.1140  13.8833  -2.4207   H         2 RES2   0.0000
    77 C39      0.5072  15.7628  -1.4603   C.ar      2 RES2   0.0000
    78 C40     -0.7623  15.1521  -1.3674   C.ar      2 RES2   0.0000
    79 H27     -0.9617  14.6536  -0.5839   H         2 RES2   0.0000
    80 C41     -1.7299  15.2381  -2.3520   C.ar      2 RES2   0.0000
    81 H28     -2.5656  14.7969  -2.2401   H         2 RES2   0.0000
    82 C42     -1.4748  15.9822  -3.5236   C.ar      2 RES2   0.0000
    83 H29     -2.1316  16.0607  -4.2054   H         2 RES2   0.0000
    84 C43     -0.2346  16.6004  -3.6533   C.ar      2 RES2   0.0000
    85 H30     -0.0410  17.0990  -4.4369   H         2 RES2   0.0000
    86 C44      0.7242  16.4982  -2.6484   C.ar      2 RES2   0.0000
    87 H31      1.5569  16.9394  -2.7667   H         2 RES2   0.0000
    88 C45      2.9086  16.5830  -0.4910   C.ar      2 RES2   0.0000
    89 C46      4.2486  16.1679  -0.3269   C.ar      2 RES2   0.0000
    90 H32      4.4098  15.2468  -0.1641   H         2 RES2   0.0000
    91 C47      5.3422  17.0142  -0.3867   C.ar      2 RES2   0.0000
    92 H33      6.2189  16.6665  -0.2659   H         2 RES2   0.0000
    93 C48      5.1692  18.3466  -0.6195   C.ar      2 RES2   0.0000
    94 H34      5.9140  18.9349  -0.6589   H         2 RES2   0.0000
    95 C49      3.8615  18.8277  -0.8001   C.ar      2 RES2   0.0000
    96 H35      3.7120  19.7525  -0.9591   H         2 RES2   0.0000
    97 C50      2.7943  17.9502  -0.7454   C.ar      2 RES2   0.0000
    98 H36      1.9264  18.3017  -0.8904   H         2 RES2   0.0000
@<TRIPOS>BOND
     1     1    28    1
     2     2    31    1
     3     3    49    1
     4     4    52    1
     5     5     6    1
     6     6    12   ar
     7     7     5    1
     8     8     5    1
     9     9     5    1
    10    10     5    1
    11    11     5    1
    12    12    13    1
    13    14    12   ar
    14    15    14    1
    15    16    14   ar
    16    17    16    1
    17    18    16   ar
    18    19    18    1
    19    20     6   ar
    20    21     7    2
    21    22    21    1
    22    23     7    1
    23    24    23    1
    24    25    23    2
    25    26    25    1
    26    27    26    1
    27    28    26    2
    28    29    28    1
    29    30    29    1
    30    31    29    2
    31    32    10    2
    32    33     8   ar
    33    34    33    1
    34    35    33   ar
    35    36    35    1
    36    37    35   ar
    37    38    37    1
    38    39    37   ar
    39    40    39    1
    40    41     8   ar
    41    42     9    2
    42    43    42    1
    43    44     9    1
    44    45    44    1
    45    46    44    2
    46    47    46    1
    47    48    47    1
    48    49    47    2
    49    50    49    1
    50    51    50    1
    51    52    50    2
    52    53    11    2
    53    18    20   ar
    54    20    21    1
    55    25    32    1
    56    31    32    1
    57    39    41   ar
    58    41    42    1
    59    46    53    1
    60    52    53    1
    61    54    55    1
    62    55    56   ar
    63    56    57    1
    64    58    56   ar
    65    59    58    1
    66    60    58   ar
    67    61    60    1
    68    62    60   ar
    69    63    62    1
    70    64    55   ar
    71    65    64    1
    72    66    54    1
    73    67    66   ar
    74    68    67    1
    75    69    67   ar
    76    70    69    1
    77    71    69   ar
    78    72    71    1
    79    73    71   ar
    80    74    73    1
    81    75    66   ar
    82    76    75    1
    83    77    54    1
    84    78    77   ar
    85    79    78    1
    86    80    78   ar
    87    81    80    1
    88    82    80   ar
    89    83    82    1
    90    84    82   ar
    91    85    84    1
    92    86    77   ar
    93    87    86    1
    94    88    54    1
    95    89    88   ar
    96    90    89    1
    97    91    89   ar
    98    92    91    1
    99    93    91   ar
   100    94    93    1
   101    95    93   ar
   102    96    95    1
   103    97    88   ar
   104    98    97    1
   105    62    64   ar
   106    73    75   ar
   107    84    86   ar
   108    95    97   ar
@<TRIPOS>SUBSTRUCTURE
     1 RES1        1 GROUP             0 ****  ****    0  
     2 RES2       54 GROUP             0 ****  ****    0  
@<TRIPOS>CRYSIN
   29.3206   12.4637   12.7204   90.0000   90.0000   90.0000    33     1
