@<TRIPOS>MOLECULE
YUJGUH01
    98   108     2     0     0
SMALL
USER_CHARGES
****
Generated from the CSD

@<TRIPOS>ATOM
     1 I1       8.4059   3.4898  16.5602   I         1 RES1   0.0000
     2 I2       8.7388   5.5130  10.8956   I         1 RES1   0.0000
     3 I3       8.7779  15.8536   7.9698   I         1 RES1   0.0000
     4 I4       6.9224  13.6803  13.3069   I         1 RES1   0.0000
     5 Fe1      9.7936   9.8488  12.5766   Fe        1 RES1   1.0000
     6 N1      11.0655  11.3855  13.3438   N.ar      1 RES1   0.0000
     7 N2       9.4613   9.8242  14.6393   N.2       1 RES1   0.0000
     8 N3      11.6174   8.7013  12.4364   N.ar      1 RES1   0.0000
     9 N4      10.2979   9.8943  10.5602   N.2       1 RES1   0.0000
    10 O1       8.8460   8.2042  12.5078   O.2       1 RES1   0.0000
    11 O2       8.5442  11.2606  12.1875   O.2       1 RES1   0.0000
    12 C1      11.9739  12.0317  12.5985   C.ar      1 RES1   0.0000
    13 H1      12.2959  11.6111  11.8084   H         1 RES1   0.0000
    14 C2      12.4598  13.2692  12.9252   C.ar      1 RES1   0.0000
    15 H2      13.1066  13.7026  12.3815   H         1 RES1   0.0000
    16 C3      11.9739  13.8683  14.0751   C.ar      1 RES1   0.0000
    17 H3      12.2672  14.7375  14.3202   H         1 RES1   0.0000
    18 C4      11.0540  13.1953  14.8690   C.ar      1 RES1   0.0000
    19 H4      10.7291  13.5917  15.6680   H         1 RES1   0.0000
    20 C5      10.6256  11.9488  14.4836   C.ar      1 RES1   0.0000
    21 C6       9.6625  11.1114  15.3055   C.2       1 RES1   0.0000
    22 H5       9.2543  11.3791  16.1198   H         1 RES1   0.0000
    23 C7       9.2226   8.7676  15.3425   C.2       1 RES1   0.0000
    24 H6       9.2111   8.8542  16.2883   H         1 RES1   0.0000
    25 C8       8.9725   7.4573  14.7758   C.2       1 RES1   0.0000
    26 C9       8.8460   6.3765  15.6807   C.2       1 RES1   0.0000
    27 H7       8.8863   6.5371  16.6163   H         1 RES1   0.0000
    28 C10      8.6620   5.0931  15.2162   C.2       1 RES1   0.0000
    29 C11      8.6362   4.8343  13.8518   C.2       1 RES1   0.0000
    30 H8       8.5672   3.9409  13.5365   H         1 RES1   0.0000
    31 C12      8.7167   5.8986  12.9456   C.2       1 RES1   0.0000
    32 C13      8.8489   7.2458  13.3949   C.2       1 RES1   0.0000
    33 C14     12.3764   8.3278  13.4931   C.ar      1 RES1   0.0000
    34 H9      12.2068   8.7140  14.3444   H         1 RES1   0.0000
    35 C15     13.3826   7.4102  13.3642   C.ar      1 RES1   0.0000
    36 H10     13.9231   7.1769  14.1109   H         1 RES1   0.0000
    37 C16     13.5982   6.8264  12.1288   C.ar      1 RES1   0.0000
    38 H11     14.2767   6.1688  12.0279   H         1 RES1   0.0000
    39 C17     12.8306   7.1961  11.0414   C.ar      1 RES1   0.0000
    40 H12     12.9571   6.7907  10.1913   H         1 RES1   0.0000
    41 C18     11.8704   8.1749  11.2303   C.ar      1 RES1   0.0000
    42 C19     11.0511   8.7395  10.0994   C.2       1 RES1   0.0000
    43 H13     11.0310   8.3916   9.2150   H         1 RES1   0.0000
    44 C20     10.1139  10.8973   9.7663   C.2       1 RES1   0.0000
    45 H14     10.4818  10.8361   8.8921   H         1 RES1   0.0000
    46 C21      9.4009  12.0916  10.0994   C.2       1 RES1   0.0000
    47 C22      9.4498  13.1609   9.1818   C.2       1 RES1   0.0000
    48 H15      9.9500  13.0653   8.3803   H         1 RES1   0.0000
    49 C23      8.7885  14.3284   9.4230   C.2       1 RES1   0.0000
    50 C24      8.0842  14.5145  10.6253   C.2       1 RES1   0.0000
    51 H16      7.6616  15.3429  10.8180   H         1 RES1   0.0000
    52 C25      8.0238  13.4464  11.5340   C.2       1 RES1   0.0000
    53 C26      8.6707  12.2254  11.3170   C.2       1 RES1   0.0000
    54 B1       1.5093  16.0554  -0.3752   B         2 RES2  -1.0000
    55 C27      0.8337  16.3116   1.1155   C.ar      2 RES2   0.0000
    56 C28      1.0407  17.5147   1.8519   C.ar      2 RES2   0.0000
    57 H17      1.5783  18.1966   1.4690   H         2 RES2   0.0000
    58 C29      0.4772  17.7327   3.1193   C.ar      2 RES2   0.0000
    59 H18      0.6152  18.5662   3.5520   H         2 RES2   0.0000
    60 C30     -0.2616  16.7742   3.7409   C.ar      2 RES2   0.0000
    61 H19     -0.6239  16.9221   4.6075   H         2 RES2   0.0000
    62 C31     -0.4801  15.5621   3.0682   C.ar      2 RES2   0.0000
    63 H20     -0.9832  14.8726   3.4856   H         2 RES2   0.0000
    64 C32      0.0374  15.3646   1.7996   C.ar      2 RES2   0.0000
    65 H21     -0.1552  14.5438   1.3618   H         2 RES2   0.0000
    66 C33      2.0297  14.4902  -0.5233   C.ar      2 RES2   0.0000
    67 C34      2.3229  13.6070   0.5220   C.ar      2 RES2   0.0000
    68 H22      2.2338  13.9243   1.4129   H         2 RES2   0.0000
    69 C35      2.7398  12.2802   0.3318   C.ar      2 RES2   0.0000
    70 H23      2.9209  11.7258   1.0810   H         2 RES2   0.0000
    71 C36      2.8835  11.7869  -0.9355   C.ar      2 RES2   0.0000
    72 H24      3.1538  10.8871  -1.0734   H         2 RES2   0.0000
    73 C37      2.6276  12.6269  -2.0268   C.ar      2 RES2   0.0000
    74 H25      2.7484  12.3006  -2.9113   H         2 RES2   0.0000
    75 C38      2.1993  13.9371  -1.8226   C.ar      2 RES2   0.0000
    76 H26      2.0153  14.4813  -2.5794   H         2 RES2   0.0000
    77 C39      0.3996  16.2950  -1.5648   C.ar      2 RES2   0.0000
    78 C40     -0.8998  15.7814  -1.4601   C.ar      2 RES2   0.0000
    79 H27     -1.1615  15.3646  -0.6471   H         2 RES2   0.0000
    80 C41     -1.8371  15.8578  -2.5067   C.ar      2 RES2   0.0000
    81 H28     -2.7081  15.4971  -2.3918   H         2 RES2   0.0000
    82 C42     -1.4892  16.4530  -3.6911   C.ar      2 RES2   0.0000
    83 H29     -2.1188  16.5168  -4.3994   H         2 RES2   0.0000
    84 C43     -0.2012  16.9616  -3.8455   C.ar      2 RES2   0.0000
    85 H30      0.0517  17.3669  -4.6662   H         2 RES2   0.0000
    86 C44      0.7158  16.8775  -2.7938   C.ar      2 RES2   0.0000
    87 H31      1.5869  17.2318  -2.9202   H         2 RES2   0.0000
    88 C45      2.8174  17.0393  -0.5207   C.ar      2 RES2   0.0000
    89 C46      4.1283  16.5894  -0.2731   C.ar      2 RES2   0.0000
    90 H32      4.2663  15.6679  -0.0868   H         2 RES2   0.0000
    91 C47      5.2237  17.4383  -0.2872   C.ar      2 RES2   0.0000
    92 H33      6.0919  17.0903  -0.1225   H         2 RES2   0.0000
    93 C48      5.0627  18.7842  -0.5386   C.ar      2 RES2   0.0000
    94 H34      5.8130  19.3679  -0.5399   H         2 RES2   0.0000
    95 C49      3.7949  19.2749  -0.7900   C.ar      2 RES2   0.0000
    96 H35      3.6684  20.1989  -0.9674   H         2 RES2   0.0000
    97 C50      2.7053  18.4044  -0.7811   C.ar      2 RES2   0.0000
    98 H36      1.8428  18.7600  -0.9611   H         2 RES2   0.0000
@<TRIPOS>BOND
     1     1    28    1
     2     2    31    1
     3     3    49    1
     4     4    52    1
     5     5     6    1
     6     6    12   ar
     7     7     5    1
     8     8     5    1
     9     9     5    1
    10    10     5    1
    11    11     5    1
    12    12    13    1
    13    14    12   ar
    14    15    14    1
    15    16    14   ar
    16    17    16    1
    17    18    16   ar
    18    19    18    1
    19    20     6   ar
    20    21     7    2
    21    22    21    1
    22    23     7    1
    23    24    23    1
    24    25    23    2
    25    26    25    1
    26    27    26    1
    27    28    26    2
    28    29    28    1
    29    30    29    1
    30    31    29    2
    31    32    10    2
    32    33     8   ar
    33    34    33    1
    34    35    33   ar
    35    36    35    1
    36    37    35   ar
    37    38    37    1
    38    39    37   ar
    39    40    39    1
    40    41     8   ar
    41    42     9    2
    42    43    42    1
    43    44     9    1
    44    45    44    1
    45    46    44    2
    46    47    46    1
    47    48    47    1
    48    49    47    2
    49    50    49    1
    50    51    50    1
    51    52    50    2
    52    53    11    2
    53    18    20   ar
    54    20    21    1
    55    25    32    1
    56    31    32    1
    57    39    41   ar
    58    41    42    1
    59    46    53    1
    60    52    53    1
    61    54    55    1
    62    55    56   ar
    63    56    57    1
    64    58    56   ar
    65    59    58    1
    66    60    58   ar
    67    61    60    1
    68    62    60   ar
    69    63    62    1
    70    64    55   ar
    71    65    64    1
    72    66    54    1
    73    67    66   ar
    74    68    67    1
    75    69    67   ar
    76    70    69    1
    77    71    69   ar
    78    72    71    1
    79    73    71   ar
    80    74    73    1
    81    75    66   ar
    82    76    75    1
    83    77    54    1
    84    78    77   ar
    85    79    78    1
    86    80    78   ar
    87    81    80    1
    88    82    80   ar
    89    83    82    1
    90    84    82   ar
    91    85    84    1
    92    86    77   ar
    93    87    86    1
    94    88    54    1
    95    89    88   ar
    96    90    89    1
    97    91    89   ar
    98    92    91    1
    99    93    91   ar
   100    94    93    1
   101    95    93   ar
   102    96    95    1
   103    97    88   ar
   104    98    97    1
   105    62    64   ar
   106    73    75   ar
   107    84    86   ar
   108    95    97   ar
@<TRIPOS>SUBSTRUCTURE
     1 RES1        1 GROUP             0 ****  ****    0  
     2 RES2       54 GROUP             0 ****  ****    0  
@<TRIPOS>CRYSIN
   28.7489   12.7454   12.7631   90.0000   90.0000   90.0000    33     1
