@<TRIPOS>MOLECULE
YUJTUV
    88    96     4     0     0
SMALL
USER_CHARGES
****
Generated from the CSD

@<TRIPOS>ATOM
     1 Fe1     12.4905   4.3202   7.1875   Fe        1 RES1   2.0000
     2 N1      11.1314   4.3186   5.7558   N.ar      1 RES1   0.0000
     3 C1       9.9102   4.8467   5.7223   C.ar      1 RES1   0.0000
     4 H1       9.5781   5.2718   6.5048   H         1 RES1   0.0000
     5 C2       9.0948   4.8055   4.5889   C.ar      1 RES1   0.0000
     6 H2       8.2354   5.2083   4.6098   H         1 RES1   0.0000
     7 C3       9.5276   4.1885   3.4509   C.ar      1 RES1   0.0000
     8 H3       8.9653   4.1346   2.6869   H         1 RES1   0.0000
     9 C4      10.8249   3.6287   3.4266   C.ar      1 RES1   0.0000
    10 C5      11.5812   3.7318   4.6051   C.ar      1 RES1   0.0000
    11 N2      13.5491   3.3607   5.8450   N.ar      1 RES1   0.0000
    12 C6      12.9008   3.2179   4.6572   C.ar      1 RES1   0.0000
    13 C7      13.4701   2.6137   3.5320   C.ar      1 RES1   0.0000
    14 C8      14.7617   2.0792   3.6697   C.ar      1 RES1   0.0000
    15 H4      15.1958   1.6700   2.9300   H         1 RES1   0.0000
    16 C9      15.3856   2.1585   4.8887   C.ar      1 RES1   0.0000
    17 H5      16.2409   1.7620   5.0115   H         1 RES1   0.0000
    18 C10     14.7659   2.8230   5.9492   C.ar      1 RES1   0.0000
    19 H6      15.2263   2.8944   6.7757   H         1 RES1   0.0000
    20 C11     11.4191   3.0371   2.2794   C.ar      1 RES1   0.0000
    21 H7      10.9225   2.9769   1.4725   H         1 RES1   0.0000
    22 C12     12.6844   2.5613   2.3211   C.ar      1 RES1   0.0000
    23 H8      13.0656   2.1823   1.5374   H         1 RES1   0.0000
    24 N3      11.9211   2.6311   7.9947   N.ar      1 RES1   0.0000
    25 C13     10.9612   1.7731   7.6150   C.ar      1 RES1   0.0000
    26 H9      10.5235   1.9190   6.7838   H         1 RES1   0.0000
    27 C14     10.5812   0.6867   8.3802   C.ar      1 RES1   0.0000
    28 H10      9.8973   0.1031   8.0700   H         1 RES1   0.0000
    29 C15     11.1879   0.4488   9.5911   C.ar      1 RES1   0.0000
    30 H11     10.9132  -0.2839  10.1317   H         1 RES1   0.0000
    31 C16     12.2110   1.2942  10.0160   C.ar      1 RES1   0.0000
    32 C17     12.5505   2.3726   9.1859   C.ar      1 RES1   0.0000
    33 N4      13.8114   4.2821   8.6615   N.ar      1 RES1   0.0000
    34 C18     13.5660   3.2861   9.5552   C.ar      1 RES1   0.0000
    35 C19     14.2330   3.1624  10.7858   C.ar      1 RES1   0.0000
    36 C20     15.1806   4.1267  11.0984   C.ar      1 RES1   0.0000
    37 H12     15.6465   4.0902  11.9249   H         1 RES1   0.0000
    38 C21     15.4348   5.1322  10.2024   C.ar      1 RES1   0.0000
    39 H13     16.0783   5.7983  10.4073   H         1 RES1   0.0000
    40 C22     14.7498   5.1750   8.9938   C.ar      1 RES1   0.0000
    41 H14     14.9578   5.8681   8.3779   H         1 RES1   0.0000
    42 C23     12.9352   1.1593  11.2512   C.ar      1 RES1   0.0000
    43 H15     12.7386   0.4298  11.8277   H         1 RES1   0.0000
    44 C24     13.8821   2.0427  11.6089   C.ar      1 RES1   0.0000
    45 H16     14.3352   1.9206  12.4355   H         1 RES1   0.0000
    46 N5      11.3329   5.3828   8.3629   N.ar      1 RES1   0.0000
    47 C25     10.4126   4.9895   9.2635   C.ar      1 RES1   0.0000
    48 H17     10.2887   4.0585   9.4036   H         1 RES1   0.0000
    49 C26      9.6368   5.8744   9.9963   C.ar      1 RES1   0.0000
    50 H18      8.9929   5.5509  10.6168   H         1 RES1   0.0000
    51 C27      9.8098   7.2209   9.8122   C.ar      1 RES1   0.0000
    52 H19      9.2788   7.8410  10.2973   H         1 RES1   0.0000
    53 C28     10.7712   7.6793   8.9104   C.ar      1 RES1   0.0000
    54 C29     11.5011   6.7102   8.2008   C.ar      1 RES1   0.0000
    55 N6      13.1129   6.0901   6.5766   N.ar      1 RES1   0.0000
    56 C30     12.4732   7.1115   7.2353   C.ar      1 RES1   0.0000
    57 C31     12.7532   8.4627   7.0119   C.ar      1 RES1   0.0000
    58 C32     13.7326   8.7736   6.0661   C.ar      1 RES1   0.0000
    59 H20     13.9467   9.6792   5.8774   H         1 RES1   0.0000
    60 C33     14.3768   7.7617   5.4166   C.ar      1 RES1   0.0000
    61 H21     15.0527   7.9584   4.7811   H         1 RES1   0.0000
    62 C34     14.0353   6.4327   5.6898   C.ar      1 RES1   0.0000
    63 H22     14.4860   5.7428   5.2164   H         1 RES1   0.0000
    64 C35     11.0632   9.0559   8.6442   C.ar      1 RES1   0.0000
    65 H23     10.5741   9.7252   9.1061   H         1 RES1   0.0000
    66 C36     12.0060   9.4333   7.7620   C.ar      1 RES1   0.0000
    67 H24     12.1811  10.3596   7.6335   H         1 RES1   0.0000
    68 P1       7.6303   8.7603   6.5661   P.3       2 RES2  -1.0000
    69 F1       7.7250   8.8898   4.9756   F         2 RES2   0.0000
    70 F2       6.4151   9.8076   6.5870   F         2 RES2   0.0000
    71 F3       8.6690   9.9705   6.7109   F         2 RES2   0.0000
    72 F4       6.5979   7.5540   6.4157   F         2 RES2   0.0000
    73 F5       8.8509   7.7245   6.5477   F         2 RES2   0.0000
    74 F6       7.5399   8.6404   8.1475   F         2 RES2   0.0000
    75 P2      16.6509   0.6382   8.6824   P.3       3 RES3  -1.0000
    76 F7      16.6509  -0.9801   8.6824   F         3 RES3   0.0000
    77 F8      16.6509   2.2521   8.6824   F         3 RES3   0.0000
    78 F9      18.2051   0.6336   9.0783   F         3 RES3   0.0000
    79 F10     16.2675   0.6344  10.2267   F         3 RES3   0.0000
    80 F9A     15.0968   0.6336   8.2864   F         3 RES3   0.0000
    81 F10A    17.0344   0.6344   7.1381   F         3 RES3   0.0000
    82 P3      15.5752   6.5740  14.4706   P.3       4 RES4  -1.0000
    83 F11     16.6733   7.7142  14.6651   F         4 RES4   0.0000
    84 F12     14.4673   5.4653  14.2425   F         4 RES4   0.0000
    85 F13     15.8614   6.5897  12.9031   F         4 RES4   0.0000
    86 F11A    14.4771   7.7142  14.2761   F         4 RES4   0.0000
    87 F12A    16.6831   5.4653  14.6987   F         4 RES4   0.0000
    88 F13A    15.2890   6.5897  16.0381   F         4 RES4   0.0000
@<TRIPOS>BOND
     1     1     2    1
     2     2     3   ar
     3     3     4    1
     4     5     3   ar
     5     6     5    1
     6     7     5   ar
     7     8     7    1
     8     9     7   ar
     9    10     2   ar
    10    11     1    1
    11    12    10   ar
    12    13    12   ar
    13    14    13   ar
    14    15    14    1
    15    16    14   ar
    16    17    16    1
    17    18    11   ar
    18    19    18    1
    19    20     9   ar
    20    21    20    1
    21    22    13   ar
    22    23    22    1
    23    24     1    1
    24    25    24   ar
    25    26    25    1
    26    27    25   ar
    27    28    27    1
    28    29    27   ar
    29    30    29    1
    30    31    29   ar
    31    32    24   ar
    32    33     1    1
    33    34    32   ar
    34    35    34   ar
    35    36    35   ar
    36    37    36    1
    37    38    36   ar
    38    39    38    1
    39    40    33   ar
    40    41    40    1
    41    42    31   ar
    42    43    42    1
    43    44    35   ar
    44    45    44    1
    45    46     1    1
    46    47    46   ar
    47    48    47    1
    48    49    47   ar
    49    50    49    1
    50    51    49   ar
    51    52    51    1
    52    53    51   ar
    53    54    46   ar
    54    55     1    1
    55    56    54   ar
    56    57    56   ar
    57    58    57   ar
    58    59    58    1
    59    60    58   ar
    60    61    60    1
    61    62    55   ar
    62    63    62    1
    63    64    53   ar
    64    65    64    1
    65    66    57   ar
    66    67    66    1
    67     9    10   ar
    68    11    12   ar
    69    16    18   ar
    70    20    22   ar
    71    31    32   ar
    72    33    34   ar
    73    38    40   ar
    74    42    44   ar
    75    53    54   ar
    76    55    56   ar
    77    60    62   ar
    78    64    66   ar
    79    68    69    1
    80    70    68    1
    81    71    68    1
    82    72    68    1
    83    73    68    1
    84    74    68    1
    85    75    76    1
    86    77    75    1
    87    78    75    1
    88    79    75    1
    89    80    75    1
    90    81    75    1
    91    82    83    1
    92    84    82    1
    93    85    82    1
    94    86    82    1
    95    87    82    1
    96    88    82    1
@<TRIPOS>SUBSTRUCTURE
     1 RES1        1 GROUP             0 ****  ****    0  
     2 RES2       68 GROUP             0 ****  ****    0  
     3 RES3       75 GROUP             0 ****  ****    0  
     4 RES4       82 GROUP             0 ****  ****    0  
@<TRIPOS>CRYSIN
   36.5290   15.8597   11.7747   90.0000  100.5280   90.0000    15     1
