@<TRIPOS>MOLECULE
YUKPID
    71    74     4     0     0
SMALL
USER_CHARGES
****
Generated from the CSD

@<TRIPOS>ATOM
     1 Fe1      6.6824   0.1221   4.7753   Fe        1 RES1   1.0000
     2 O1       7.0377  -1.8331   3.9896   O.3       1 RES1   0.0000
     3 O2       8.1806   0.1418   6.1196   O.co2     1 RES1   0.0000
     4 O3      10.3728  -0.9799   4.3861   O.2       1 RES1   0.0000
     5 O4       9.9693  -0.2247   7.3846   O.co2     1 RES1   0.0000
     6 N1       4.8575   0.5760   3.5950   N.3       1 RES1   0.0000
     7 N2       5.1238  -0.7347   6.0187   N.ar      1 RES1   0.0000
     8 N3       5.9426   2.0008   5.6943   N.ar      1 RES1   0.0000
     9 N4       7.4690   0.8443   2.9319   N.ar      1 RES1   0.0000
    10 C1       6.5349  -3.1206   4.4257   C.3       1 RES1   0.0000
    11 C2       9.2737  -0.4351   6.3989   C.2       1 RES1   0.0000
    12 C3       9.8560  -1.4176   5.3790   C.2       1 RES1   0.0000
    13 C4       9.8083  -2.8799   5.7214   C.ar      1 RES1   0.0000
    14 C5      10.3390  -3.8071   4.8420   C.ar      1 RES1   0.0000
    15 C6      10.3171  -5.1445   5.1753   C.ar      1 RES1   0.0000
    16 C7       9.7924  -5.5636   6.3611   C.ar      1 RES1   0.0000
    17 C8       9.2359  -4.6542   7.2567   C.ar      1 RES1   0.0000
    18 C9       9.2439  -3.3168   6.9251   C.ar      1 RES1   0.0000
    19 C10      3.7584  -0.3210   4.0419   C.3       1 RES1   0.0000
    20 C11      3.8995  -0.6865   5.5015   C.ar      1 RES1   0.0000
    21 C12      2.7388  -1.0343   6.2295   C.ar      1 RES1   0.0000
    22 C13      2.9137  -1.4622   7.5324   C.ar      1 RES1   0.0000
    23 C14      4.1877  -1.5514   8.0640   C.ar      1 RES1   0.0000
    24 C15      5.2510  -1.1858   7.2855   C.ar      1 RES1   0.0000
    25 C16      4.5216   2.0150   3.7590   C.3       1 RES1   0.0000
    26 C17      4.8316   2.4876   5.1447   C.ar      1 RES1   0.0000
    27 C18      4.0128   3.4327   5.8006   C.ar      1 RES1   0.0000
    28 C19      4.3884   3.8785   7.0476   C.ar      1 RES1   0.0000
    29 C20      5.5431   3.3881   7.5954   C.ar      1 RES1   0.0000
    30 C21      6.2805   2.4608   6.9089   C.ar      1 RES1   0.0000
    31 C22      5.2331   0.3121   2.1984   C.3       1 RES1   0.0000
    32 C23      6.5806   0.8916   1.9137   C.ar      1 RES1   0.0000
    33 C24      6.9344   1.4087   0.6776   C.ar      1 RES1   0.0000
    34 C25      8.2064   1.8545   0.4415   C.ar      1 RES1   0.0000
    35 C26      9.1385   1.8099   1.5047   C.ar      1 RES1   0.0000
    36 C27      8.7172   1.2750   2.7120   C.ar      1 RES1   0.0000
    37 H1      10.7146  -3.5200   4.0185   H         1 RES1   0.0000
    38 H2      10.6729  -5.7865   4.5699   H         1 RES1   0.0000
    39 H3       9.8063  -6.4882   6.5791   H         1 RES1   0.0000
    40 H4       8.8583  -4.9466   8.0766   H         1 RES1   0.0000
    41 H5       8.8603  -2.6801   7.5197   H         1 RES1   0.0000
    42 H6       2.9256   0.1141   3.9103   H         1 RES1   0.0000
    43 H7       3.7802  -1.1225   3.5247   H         1 RES1   0.0000
    44 H8       1.8742  -0.9825   5.8403   H         1 RES1   0.0000
    45 H9       2.1604  -1.6967   8.0621   H         1 RES1   0.0000
    46 H10      4.3228  -1.8670   8.9505   H         1 RES1   0.0000
    47 H11      6.1255  -1.2482   7.6549   H         1 RES1   0.0000
    48 H12      5.0284   2.5232   3.1373   H         1 RES1   0.0000
    49 H13      3.5954   2.1372   3.5878   H         1 RES1   0.0000
    50 H14      3.2178   3.7590   5.3880   H         1 RES1   0.0000
    51 H15      3.8558   4.5142   7.5179   H         1 RES1   0.0000
    52 H16      5.8333   3.6957   8.4478   H         1 RES1   0.0000
    53 H17      7.0715   2.1238   7.3125   H         1 RES1   0.0000
    54 H18      5.2569  -0.6304   2.0525   H         1 RES1   0.0000
    55 H19      4.5911   0.7026   1.6200   H         1 RES1   0.0000
    56 H20      6.2825   1.4595  -0.0126   H         1 RES1   0.0000
    57 H21      8.4588   2.1764  -0.4145   H         1 RES1   0.0000
    58 H22     10.0250   2.1336   1.3947   H         1 RES1   0.0000
    59 H23      9.3472   1.2206   3.4184   H         1 RES1   0.0000
    60 H24      5.7936  -3.3720   3.8869   H         1 RES1   0.0000
    61 H25      6.2606  -3.0626   5.3303   H         1 RES1   0.0000
    62 H26      7.2206  -3.7741   4.3428   H         1 RES1   0.0000
    63 Cl1     13.0539   3.5334   1.7714   Cl        2 RES2   0.0000
    64 O5      14.4392   3.7536   1.6308   O.2       2 RES2   0.0000
    65 O6      12.3225   4.6363   1.3875   O.3       2 RES2  -1.0000
    66 O7      12.7598   2.4519   1.0055   O.2       2 RES2   0.0000
    67 O8      12.7876   3.2989   3.1355   O.2       2 RES2   0.0000
    68 O9       8.1428  -2.2994   1.6452   O.3       3 RES3   0.0000
    69 C28      8.2024  -3.7269   1.3371   C.3       3 RES3   0.0000
    70 O10      9.5340   1.4043   9.4479   O.3       4 RES4   0.0000
    71 C29      8.3097   1.0521  10.1326   C.3       4 RES4   0.0000
@<TRIPOS>BOND
     1     1     2    1
     2     2    10    1
     3     3     1    1
     4     4    12    2
     5     5    11    2
     6     6     1    1
     7     7     1    1
     8     8     1    1
     9     9     1    1
    10    10    60    1
    11    11     3    1
    12    12    11    1
    13    13    12    1
    14    14    13   ar
    15    15    14   ar
    16    16    15   ar
    17    17    16   ar
    18    18    13   ar
    19    19     6    1
    20    20     7   ar
    21    21    20   ar
    22    22    21   ar
    23    23    22   ar
    24    24     7   ar
    25    25     6    1
    26    26     8   ar
    27    27    26   ar
    28    28    27   ar
    29    29    28   ar
    30    30     8   ar
    31    31     6    1
    32    32     9   ar
    33    33    32   ar
    34    34    33   ar
    35    35    34   ar
    36    36     9   ar
    37    37    14    1
    38    38    15    1
    39    39    16    1
    40    40    17    1
    41    41    18    1
    42    42    19    1
    43    43    19    1
    44    44    21    1
    45    45    22    1
    46    46    23    1
    47    47    24    1
    48    48    25    1
    49    49    25    1
    50    50    27    1
    51    51    28    1
    52    52    29    1
    53    53    30    1
    54    54    31    1
    55    55    31    1
    56    56    33    1
    57    57    34    1
    58    58    35    1
    59    59    36    1
    60    61    10    1
    61    62    10    1
    62    17    18   ar
    63    19    20    1
    64    23    24   ar
    65    25    26    1
    66    29    30   ar
    67    31    32    1
    68    35    36   ar
    69    63    64    2
    70    65    63    1
    71    66    63    2
    72    67    63    2
    73    68    69    1
    74    70    71    1
@<TRIPOS>SUBSTRUCTURE
     1 RES1        1 GROUP             0 ****  ****    0  
     2 RES2       63 GROUP             0 ****  ****    0  
     3 RES3       68 GROUP             0 ****  ****    0  
     4 RES4       70 GROUP             0 ****  ****    0  
@<TRIPOS>CRYSIN
   19.8750    8.9160   18.0200   90.0000   90.0000   90.0000    29     1
