@<TRIPOS>MOLECULE
YULPIH
    75    75     3     0     0
SMALL
USER_CHARGES
****
Generated from the CSD

@<TRIPOS>ATOM
     1 C1       0.3264   8.9597   5.9672   C.1       1 RES1   0.0000
     2 C2       1.1163   8.1367   5.6557   C.1       1 RES1   0.0000
     3 C3       2.0483   7.0833   5.2852   C.ar      1 RES1   0.0000
     4 C4       2.2674   6.7577   3.9558   C.ar      1 RES1   0.0000
     5 H1       1.8401   7.2460   3.2627   H         1 RES1   0.0000
     6 C5       3.1353   5.6887   3.6504   C.ar      1 RES1   0.0000
     7 H2       3.2860   5.4515   2.7422   H         1 RES1   0.0000
     8 C6       3.7583   4.9947   4.6419   C.ar      1 RES1   0.0000
     9 H3       4.3276   4.2682   4.4159   H         1 RES1   0.0000
    10 C7       3.5769   5.3303   5.9713   C.ar      1 RES1   0.0000
    11 H4       4.0404   4.8603   6.6552   H         1 RES1   0.0000
    12 C8       2.7145   6.3563   6.2930   C.ar      1 RES1   0.0000
    13 H5       2.5674   6.5762   7.2049   H         1 RES1   0.0000
    14 C9      -1.3055  11.2796   3.3104   C.3       1 RES1   0.0000
    15 H6      -2.1503  11.7903   3.3874   H         1 RES1   0.0000
    16 H7      -0.8349  11.5790   2.4917   H         1 RES1   0.0000
    17 C10     -1.6075   9.7790   3.2208   C.3       1 RES1   0.0000
    18 H8      -0.7822   9.2783   2.9997   H         1 RES1   0.0000
    19 H9      -2.2768   9.6074   2.5119   H         1 RES1   0.0000
    20 C11      1.4206  11.3089   4.1268   C.3       1 RES1   0.0000
    21 H10      1.5158  10.3756   3.8418   H         1 RES1   0.0000
    22 H11      2.0761  11.5049   4.8276   H         1 RES1   0.0000
    23 H12      1.5743  11.9007   3.3604   H         1 RES1   0.0000
    24 C12     -0.3185  13.3865   4.9757   C.3       1 RES1   0.0000
    25 H13     -0.1685  13.8176   4.1091   H         1 RES1   0.0000
    26 H14      0.3778  13.6675   5.6058   H         1 RES1   0.0000
    27 H15     -1.1973  13.6486   5.3233   H         1 RES1   0.0000
    28 C13     -2.2647   7.4280   4.7131   C.3       1 RES1   0.0000
    29 H16     -2.6774   7.0504   5.5181   H         1 RES1   0.0000
    30 H17     -1.3448   7.0995   4.6332   H         1 RES1   0.0000
    31 H18     -2.7786   7.1563   3.9244   H         1 RES1   0.0000
    32 C14     -4.0264   9.6592   4.7498   C.3       1 RES1   0.0000
    33 H19     -4.4478   9.1544   4.0229   H         1 RES1   0.0000
    34 H20     -4.1283  10.6197   4.5814   H         1 RES1   0.0000
    35 H21     -4.4571   9.4294   5.5994   H         1 RES1   0.0000
    36 C15     -1.2044   9.5897   9.7153   C.3       1 RES1   0.0000
    37 H22     -1.7989  10.3503   9.9367   H         1 RES1   0.0000
    38 H23     -1.2733   8.9200  10.4416   H         1 RES1   0.0000
    39 C16      0.2400  10.0762   9.5911   C.3       1 RES1   0.0000
    40 H24      0.8537   9.2998   9.5752   H         1 RES1   0.0000
    41 H25      0.4721  10.6385  10.3719   H         1 RES1   0.0000
    42 C17     -1.0297   7.1619   8.2088   C.3       1 RES1   0.0000
    43 H26     -0.0536   7.2070   8.2810   H         1 RES1   0.0000
    44 H27     -1.2754   6.6725   7.3965   H         1 RES1   0.0000
    45 H28     -1.3943   6.6995   8.9922   H         1 RES1   0.0000
    46 C18     -3.4958   8.5683   8.3207   C.3       1 RES1   0.0000
    47 H29     -3.8097   7.9612   7.6191   H         1 RES1   0.0000
    48 H30     -3.9685   9.4242   8.2479   H         1 RES1   0.0000
    49 H31     -3.6732   8.1720   9.1996   H         1 RES1   0.0000
    50 C19      2.2207  10.9705   7.7181   C.3       1 RES1   0.0000
    51 H32      2.4444  11.5705   6.9768   H         1 RES1   0.0000
    52 H33      2.4682  10.0523   7.4824   H         1 RES1   0.0000
    53 H34      2.7127  11.2453   8.5207   H         1 RES1   0.0000
    54 C20      0.2243  12.7638   8.5996   C.3       1 RES1   0.0000
    55 H35      0.8709  12.9593   9.3103   H         1 RES1   0.0000
    56 H36     -0.6851  12.8851   8.9440   H         1 RES1   0.0000
    57 H37      0.3730  13.3716   7.8464   H         1 RES1   0.0000
    58 P1      -0.2610  11.5775   4.7738   P.3       1 RES1   0.0000
    59 P2      -2.2519   9.2407   4.8330   P.3       1 RES1   0.0000
    60 P3      -1.7088   8.8449   8.1300   P.3       1 RES1   0.0000
    61 P4       0.4364  11.0517   8.0461   P.3       1 RES1   0.0000
    62 Br1     -2.7247  11.8099   7.0717   Br        1 RES1   0.0000
    63 Fe1     -0.9887  10.2244   6.4615   Fe        1 RES1   1.0000
    64 P5       2.4757   6.8113  10.9540   P.3       2 RES2  -1.0000
    65 F1       2.3515   7.3622   9.4771   F         2 RES2   0.0000
    66 F2       4.0639   6.7486  10.8351   F         2 RES2   0.0000
    67 F3       2.3665   5.3522  10.4564   F         2 RES2   0.0000
    68 F4       2.6257   6.3041  12.4455   F         2 RES2   0.0000
    69 F5       0.9104   6.9004  11.0896   F         2 RES2   0.0000
    70 F6       2.6028   8.2830  11.4723   F         2 RES2   0.0000
    71 C21     -3.7970   3.5736  10.8554   C.3       3 RES3   0.0000
    72 H38     -4.3340   4.3171  11.2299   H         3 RES3   0.0000
    73 H39     -3.6916   3.7368   9.8849   H         3 RES3   0.0000
    74 Cl1     -4.6592   2.0804  11.0881   Cl        3 RES3   0.0000
    75 Cl2     -2.2099   3.5773  11.6124   Cl        3 RES3   0.0000
@<TRIPOS>BOND
     1     1     2    3
     2     2     3    1
     3     3     4   ar
     4     4     5    1
     5     6     4   ar
     6     7     6    1
     7     8     6   ar
     8     9     8    1
     9    10     8   ar
    10    11    10    1
    11    12     3   ar
    12    13    12    1
    13    14    15    1
    14    16    14    1
    15    17    14    1
    16    18    17    1
    17    19    17    1
    18    20    21    1
    19    22    20    1
    20    23    20    1
    21    24    25    1
    22    26    24    1
    23    27    24    1
    24    28    29    1
    25    30    28    1
    26    31    28    1
    27    32    33    1
    28    34    32    1
    29    35    32    1
    30    36    37    1
    31    38    36    1
    32    39    36    1
    33    40    39    1
    34    41    39    1
    35    42    43    1
    36    44    42    1
    37    45    42    1
    38    46    47    1
    39    48    46    1
    40    49    46    1
    41    50    51    1
    42    52    50    1
    43    53    50    1
    44    54    55    1
    45    56    54    1
    46    57    54    1
    47    58    14    1
    48    59    17    1
    49    60    36    1
    50    61    39    1
    51    62    63    1
    52    63     1    1
    53    10    12   ar
    54    20    58    1
    55    24    58    1
    56    28    59    1
    57    32    59    1
    58    42    60    1
    59    46    60    1
    60    50    61    1
    61    54    61    1
    62    58    63    1
    63    59    63    1
    64    60    63    1
    65    61    63    1
    66    64    65    1
    67    66    64    1
    68    67    64    1
    69    68    64    1
    70    69    64    1
    71    70    64    1
    72    71    72    1
    73    73    71    1
    74    74    71    1
    75    75    71    1
@<TRIPOS>SUBSTRUCTURE
     1 RES1        1 GROUP             0 ****  ****    0  
     2 RES2       64 GROUP             0 ****  ****    0  
     3 RES3       71 GROUP             0 ****  ****    0  
@<TRIPOS>CRYSIN
    8.7631    9.1444   20.5877   90.0000   98.5480   90.0000     7     1
