@<TRIPOS>MOLECULE
YUMHEW
    77    79     1     0     0
SMALL
NO_CHARGES
****
Generated from the CSD

@<TRIPOS>ATOM
     1 C1      23.3344   2.9714  12.8130   C.1       1 RES1   0.0000
     2 C2      24.3018   3.0419  12.0689   C.1       1 RES1   0.0000
     3 C3      25.4162   3.1858  11.1759   C.ar      1 RES1   0.0000
     4 C4      25.6501   2.2653  10.1613   C.ar      1 RES1   0.0000
     5 H1      25.0511   1.5372  10.0427   H         1 RES1   0.0000
     6 C5      26.7444   2.3915   9.3199   C.ar      1 RES1   0.0000
     7 H2      26.8934   1.7416   8.6433   H         1 RES1   0.0000
     8 C6      27.6101   3.4383   9.4505   C.ar      1 RES1   0.0000
     9 H3      28.3592   3.5176   8.8716   H         1 RES1   0.0000
    10 C7      27.3839   4.3785  10.4342   C.ar      1 RES1   0.0000
    11 H4      27.9767   5.1153  10.5247   H         1 RES1   0.0000
    12 C8      26.3033   4.2606  11.2908   C.ar      1 RES1   0.0000
    13 H5      26.1626   4.9160  11.9637   H         1 RES1   0.0000
    14 C9      20.1056   3.0024  14.8894   C.1       1 RES1   0.0000
    15 C10     19.0300   2.9914  15.4808   C.1       1 RES1   0.0000
    16 C11     16.2895   2.0057  14.7765   C.3       1 RES1   0.0000
    17 H6      16.2072   2.6855  14.0757   H         1 RES1   0.0000
    18 H7      15.4024   1.8017  15.1397   H         1 RES1   0.0000
    19 H8      16.6821   1.1915  14.3974   H         1 RES1   0.0000
    20 C12     17.5246   1.3571  17.4730   C.3       1 RES1   0.0000
    21 H9      17.9824   0.5667  17.1176   H         1 RES1   0.0000
    22 H10     16.6285   1.1051  17.7795   H         1 RES1   0.0000
    23 H11     18.0369   1.7207  18.2250   H         1 RES1   0.0000
    24 C13     16.5146   4.1261  16.8338   C.3       1 RES1   0.0000
    25 H12     16.9247   4.3732  17.6890   H         1 RES1   0.0000
    26 H13     15.5685   3.9133  16.9746   H         1 RES1   0.0000
    27 H14     16.5909   4.8755  16.2066   H         1 RES1   0.0000
    28 C14     20.8169   5.8432  12.5751   C.3       1 RES1   0.0000
    29 H15     19.8650   5.8986  12.8414   H         1 RES1   0.0000
    30 H16     21.1289   6.7522  12.3392   H         1 RES1   0.0000
    31 C15     20.9674   4.9278  11.3986   C.3       1 RES1   0.0000
    32 H17     21.8809   5.0003  11.0236   H         1 RES1   0.0000
    33 H18     20.3178   5.1693  10.6918   H         1 RES1   0.0000
    34 C16     23.3959   6.0553  13.6943   C.3       1 RES1   0.0000
    35 H19     23.2232   7.0175  13.6279   H         1 RES1   0.0000
    36 H20     23.8098   5.7396  12.8638   H         1 RES1   0.0000
    37 H21     24.0005   5.8829  14.4462   H         1 RES1   0.0000
    38 C17     21.1491   6.0884  15.3822   C.3       1 RES1   0.0000
    39 H22     21.7407   5.9745  16.1552   H         1 RES1   0.0000
    40 H23     20.2575   5.7447  15.5998   H         1 RES1   0.0000
    41 H24     21.0864   7.0397  15.1560   H         1 RES1   0.0000
    42 C18     21.0940   2.2549  10.5000   C.3       1 RES1   0.0000
    43 H25     20.7527   1.3412  10.5925   H         1 RES1   0.0000
    44 H26     22.0685   2.2316  10.4002   H         1 RES1   0.0000
    45 H27     20.6946   2.6746   9.7094   H         1 RES1   0.0000
    46 C19     18.8401   3.0969  11.9416   C.3       1 RES1   0.0000
    47 H28     18.5136   3.3865  11.0641   H         1 RES1   0.0000
    48 H29     18.4575   3.6703  12.6381   H         1 RES1   0.0000
    49 H30     18.5713   2.1676  12.0995   H         1 RES1   0.0000
    50 C20     22.1931   0.1117  15.4386   C.3       1 RES1   0.0000
    51 H31     21.4795   0.1624  16.1227   H         1 RES1   0.0000
    52 H32     22.4597  -0.8357  15.3332   H         1 RES1   0.0000
    53 C21     23.3592   0.9258  15.8575   C.3       1 RES1   0.0000
    54 H33     24.1400   0.7093  15.2881   H         1 RES1   0.0000
    55 H34     23.5933   0.7171  16.7961   H         1 RES1   0.0000
    56 C22     19.9674  -0.0538  13.6879   C.3       1 RES1   0.0000
    57 H35     19.6407   0.0325  12.7679   H         1 RES1   0.0000
    58 H36     19.3268   0.3615  14.3023   H         1 RES1   0.0000
    59 H37     20.0657  -1.0032  13.9115   H         1 RES1   0.0000
    60 C23     22.5579  -0.1810  12.6264   C.3       1 RES1   0.0000
    61 H38     22.4625  -1.1384  12.8138   H         1 RES1   0.0000
    62 H39     23.5025   0.0719  12.6924   H         1 RES1   0.0000
    63 H40     22.2314   0.0088  11.7222   H         1 RES1   0.0000
    64 C24     22.2845   3.1052  17.3320   C.3       1 RES1   0.0000
    65 H41     22.8913   2.7735  18.0264   H         1 RES1   0.0000
    66 H42     21.4061   2.6835  17.4371   H         1 RES1   0.0000
    67 H43     22.1922   4.0773  17.4159   H         1 RES1   0.0000
    68 C25     24.6223   3.4290  15.8276   C.3       1 RES1   0.0000
    69 H44     24.5483   4.3739  16.0753   H         1 RES1   0.0000
    70 H45     25.0782   3.3520  14.9636   H         1 RES1   0.0000
    71 H46     25.1361   2.9509  16.5118   H         1 RES1   0.0000
    72 Si1     17.3837   2.6462  16.1366   Si        1 RES1   0.0000
    73 Fe1     21.7408   2.9672  13.8827   Fe        1 RES1   0.0000
    74 P1      21.8222   5.1715  13.9640   P.3       1 RES1   0.0000
    75 P2      20.6584   3.2192  11.9843   P.3       1 RES1   0.0000
    76 P3      21.5842   0.7775  13.8404   P.3       1 RES1   0.0000
    77 P4      22.9557   2.7018  15.7017   P.3       1 RES1   0.0000
@<TRIPOS>BOND
     1     1     2    3
     2     2     3    1
     3     3     4   ar
     4     4     5    1
     5     6     4   ar
     6     7     6    1
     7     8     6   ar
     8     9     8    1
     9    10     8   ar
    10    11    10    1
    11    12     3   ar
    12    13    12    1
    13    14    15    3
    14    15    72    1
    15    16    17    1
    16    18    16    1
    17    19    16    1
    18    20    21    1
    19    22    20    1
    20    23    20    1
    21    24    25    1
    22    26    24    1
    23    27    24    1
    24    28    29    1
    25    30    28    1
    26    31    28    1
    27    32    31    1
    28    33    31    1
    29    34    35    1
    30    36    34    1
    31    37    34    1
    32    38    39    1
    33    40    38    1
    34    41    38    1
    35    42    43    1
    36    44    42    1
    37    45    42    1
    38    46    47    1
    39    48    46    1
    40    49    46    1
    41    50    51    1
    42    52    50    1
    43    53    50    1
    44    54    53    1
    45    55    53    1
    46    56    57    1
    47    58    56    1
    48    59    56    1
    49    60    61    1
    50    62    60    1
    51    63    60    1
    52    64    65    1
    53    66    64    1
    54    67    64    1
    55    68    69    1
    56    70    68    1
    57    71    68    1
    58    72    16    1
    59    73     1    1
    60    74    28    1
    61    75    31    1
    62    76    50    1
    63    77    53    1
    64    10    12   ar
    65    14    73    1
    66    20    72    1
    67    24    72    1
    68    34    74    1
    69    38    74    1
    70    42    75    1
    71    46    75    1
    72    56    76    1
    73    60    76    1
    74    64    77    1
    75    68    77    1
    76    73    74    1
    77    73    75    1
    78    73    76    1
    79    73    77    1
@<TRIPOS>SUBSTRUCTURE
     1 RES1        1 GROUP             0 ****  ****    0  
@<TRIPOS>CRYSIN
   38.6103   10.3438   15.2713   90.0000  100.5380   90.0000    15     1
