@<TRIPOS>MOLECULE
YUPCAQ
   117   122     5     0     0
SMALL
USER_CHARGES
****
Generated from the CSD

@<TRIPOS>ATOM
     1 C1       3.0567  21.4224  -0.1275   C.2       1 RES1   0.0000
     2 C2       2.5102  22.1445  -1.3102   C.3       1 RES1   0.0000
     3 H1       3.1477  22.8312  -1.5967   H         1 RES1   0.0000
     4 H2       1.6599  22.5680  -1.0691   H         1 RES1   0.0000
     5 H3       2.3632  21.5092  -2.0414   H         1 RES1   0.0000
     6 C3       4.0937  20.4015  -0.2700   C.ar      1 RES1   0.0000
     7 C4       4.7515  20.0123  -1.4322   C.ar      1 RES1   0.0000
     8 H4       4.5821  20.4495  -2.2587   H         1 RES1   0.0000
     9 C5       5.6610  18.9712  -1.3527   C.ar      1 RES1   0.0000
    10 H5       6.1162  18.6805  -2.1344   H         1 RES1   0.0000
    11 C6       5.9095  18.3523  -0.1425   C.ar      1 RES1   0.0000
    12 H6       6.5237  17.6299  -0.0900   H         1 RES1   0.0000
    13 C7       5.2585  18.7925   0.9827   C.ar      1 RES1   0.0000
    14 C8       5.4482  18.3713   2.3806   C.2       1 RES1   0.0000
    15 C9       6.3462  17.2478   2.7603   C.3       1 RES1   0.0000
    16 H7       6.3604  16.5831   2.0406   H         1 RES1   0.0000
    17 H8       6.0181  16.8308   3.5842   H         1 RES1   0.0000
    18 H9       7.2534  17.5897   2.9068   H         1 RES1   0.0000
    19 C10      1.6351  22.5246   1.4542   C.ar      1 RES1   0.0000
    20 C11      1.9303  23.8678   1.4898   C.ar      1 RES1   0.0000
    21 H10      2.7871  24.1758   1.2207   H         1 RES1   0.0000
    22 C12      0.9723  24.7675   1.9215   C.ar      1 RES1   0.0000
    23 H11      1.1750  25.6955   1.9485   H         1 RES1   0.0000
    24 C13     -0.2633  24.3286   2.3066   C.ar      1 RES1   0.0000
    25 C14     -0.5760  22.9622   2.2422   C.ar      1 RES1   0.0000
    26 H12     -1.4398  22.6552   2.4895   H         1 RES1   0.0000
    27 C15      0.3884  22.0671   1.8146   C.ar      1 RES1   0.0000
    28 H13      0.1902  21.1388   1.7708   H         1 RES1   0.0000
    29 C16     -1.2608  25.2635   2.7699   C.1       1 RES1   0.0000
    30 C17      4.9157  18.9049   4.6475   C.ar      1 RES1   0.0000
    31 C18      5.8978  19.5995   5.3122   C.ar      1 RES1   0.0000
    32 H14      6.4897  20.1692   4.8356   H         1 RES1   0.0000
    33 C19      6.0154  19.4597   6.6842   C.ar      1 RES1   0.0000
    34 H15      6.6982  19.9233   7.1542   H         1 RES1   0.0000
    35 C20      5.1263  18.6354   7.3722   C.ar      1 RES1   0.0000
    36 C21      4.1289  17.9741   6.7020   C.ar      1 RES1   0.0000
    37 H16      3.5106  17.4329   7.1793   H         1 RES1   0.0000
    38 C22      4.0269  18.0986   5.3328   C.ar      1 RES1   0.0000
    39 H17      3.3475  17.6309   4.8612   H         1 RES1   0.0000
    40 C23      5.2876  18.4467   8.7825   C.1       1 RES1   0.0000
    41 C24      1.3429  19.4199   3.7539   C.2       1 RES1   0.0000
    42 C25      0.1525  18.6361   4.1678   C.3       1 RES1   0.0000
    43 H18      0.3344  18.1920   5.0229   H         1 RES1   0.0000
    44 H19     -0.0486  17.9616   3.4863   H         1 RES1   0.0000
    45 H20     -0.6156  19.2367   4.2698   H         1 RES1   0.0000
    46 C26      1.8178  20.5384   4.5927   C.ar      1 RES1   0.0000
    47 C27      1.3335  20.9355   5.8331   C.ar      1 RES1   0.0000
    48 H21      0.5747  20.5143   6.2179   H         1 RES1   0.0000
    49 C28      1.9872  21.9583   6.4909   C.ar      1 RES1   0.0000
    50 H22      1.6824  22.2367   7.3461   H         1 RES1   0.0000
    51 C29      3.0798  22.5814   5.9180   C.ar      1 RES1   0.0000
    52 H23      3.5192  23.2935   6.3671   H         1 RES1   0.0000
    53 C30      3.5240  22.1513   4.6763   C.ar      1 RES1   0.0000
    54 C31      4.6741  22.6258   3.8951   C.2       1 RES1   0.0000
    55 C32      5.4628  23.8083   4.3487   C.3       1 RES1   0.0000
    56 H24      4.9237  24.6201   4.2434   H         1 RES1   0.0000
    57 H25      6.2768  23.8844   3.8086   H         1 RES1   0.0000
    58 H26      5.7050  23.6971   5.2915   H         1 RES1   0.0000
    59 C33      1.8760  18.1126   1.8064   C.ar      1 RES1   0.0000
    60 C34      2.1634  16.8308   2.2381   C.ar      1 RES1   0.0000
    61 H27      2.3631  16.6742   3.1534   H         1 RES1   0.0000
    62 C35      2.1633  15.7766   1.3459   C.ar      1 RES1   0.0000
    63 H28      2.3577  14.8966   1.6460   H         1 RES1   0.0000
    64 C36      1.8763  16.0095   0.0041   C.ar      1 RES1   0.0000
    65 C37      1.5487  17.2932  -0.4290   C.ar      1 RES1   0.0000
    66 H29      1.3291  17.4475  -1.3406   H         1 RES1   0.0000
    67 C38      1.5461  18.3327   0.4660   C.ar      1 RES1   0.0000
    68 H30      1.3191  19.2075   0.1736   H         1 RES1   0.0000
    69 C39      1.9602  14.9054  -0.9251   C.1       1 RES1   0.0000
    70 C40      5.9191  22.2627   1.8804   C.ar      1 RES1   0.0000
    71 C41      7.0086  21.4231   1.7104   C.ar      1 RES1   0.0000
    72 H31      7.1254  20.6784   2.2881   H         1 RES1   0.0000
    73 C42      7.9214  21.6605   0.7113   C.ar      1 RES1   0.0000
    74 H32      8.6619  21.0774   0.5946   H         1 RES1   0.0000
    75 C43      7.7576  22.7538  -0.1275   C.ar      1 RES1   0.0000
    76 C44      6.6824  23.6170   0.0535   C.ar      1 RES1   0.0000
    77 H33      6.5768  24.3739  -0.5114   H         1 RES1   0.0000
    78 C45      5.7673  23.3655   1.0608   C.ar      1 RES1   0.0000
    79 H34      5.0317  23.9529   1.1884   H         1 RES1   0.0000
    80 C46      8.6814  23.0219  -1.1992   C.1       1 RES1   0.0000
    81 Fe1      3.5946  20.4656   2.4588   Fe        1 RES1   2.0000
    82 N1       2.6642  21.5769   1.1074   N.2       1 RES1   0.0000
    83 N2       4.3707  19.8016   0.9046   N.ar      1 RES1   0.0000
    84 N3       4.7722  19.0946   3.2263   N.2       1 RES1   0.0000
    85 N4       5.4732  18.2716   9.8995   N.1       1 RES1   0.0000
    86 N5      -2.0333  26.0342   3.1111   N.1       1 RES1   0.0000
    87 N6       2.0600  19.2399   2.6863   N.2       1 RES1   0.0000
    88 N7       2.8932  21.1396   4.0500   N.ar      1 RES1   0.0000
    89 N8       4.8838  21.9250   2.8220   N.2       1 RES1   0.0000
    90 N9       2.0642  14.0279  -1.6474   N.1       1 RES1   0.0000
    91 N10      9.4009  23.2617  -2.0503   N.1       1 RES1   0.0000
    92 C47     12.4052  12.1680   3.7896   C.3       2 RES2   0.0000
    93 H35     13.2440  11.6962   3.9761   H         2 RES2   0.0000
    94 H36     11.6529  11.6490   4.1409   H         2 RES2   0.0000
    95 H37     12.4242  13.0490   4.2187   H         2 RES2   0.0000
    96 C48     12.2533  12.3316   2.3628   C.1       2 RES2   0.0000
    97 N11     12.1459  12.4518   1.2472   N.1       2 RES2   0.0000
    98 C49      9.2494  17.7015   6.2949   C.3       3 RES3   0.0000
    99 H38      8.6851  18.2280   5.6920   H         3 RES3   0.0000
   100 H39      9.6624  16.9652   5.7976   H         3 RES3   0.0000
   101 H40      9.9502  18.2749   6.6710   H         3 RES3   0.0000
   102 C50      8.4319  17.1587   7.3790   C.1       3 RES3   0.0000
   103 N12      7.8163  16.7328   8.1918   N.1       3 RES3   0.0000
   104 F1      -1.2153  22.4753   5.3095   F         4 RES4   0.0000
   105 F2      -3.3136  22.0465   4.5831   F         4 RES4   0.0000
   106 F3      -2.8793  23.9053   5.7837   F         4 RES4   0.0000
   107 F4      -4.0851  22.2392   6.6581   F         4 RES4   0.0000
   108 F5      -1.9893  22.6536   7.4010   F         4 RES4   0.0000
   109 F6      -2.4315  20.7987   6.2291   F         4 RES4   0.0000
   110 P1      -2.6413  22.3469   5.9834   P.3       4 RES4  -1.0000
   111 F7       8.4870  14.5193   5.8879   F         5 RES5   0.0000
   112 F8       8.0523  15.0778   3.6621   F         5 RES5   0.0000
   113 F9      10.0755  14.9050   4.3748   F         5 RES5   0.0000
   114 F10      9.2371  13.3352   3.1495   F         5 RES5   0.0000
   115 F11      9.5407  12.8734   5.1862   F         5 RES5   0.0000
   116 F12      7.4317  13.2235   4.4995   F         5 RES5   0.0000
   117 P2       8.7704  14.0635   4.4415   P.3       5 RES5  -1.0000
@<TRIPOS>BOND
     1     1     2    1
     2     2     3    1
     3     4     2    1
     4     5     2    1
     5     6     1    1
     6     7     6   ar
     7     8     7    1
     8     9     7   ar
     9    10     9    1
    10    11     9   ar
    11    12    11    1
    12    13    11   ar
    13    14    13    1
    14    15    14    1
    15    16    15    1
    16    17    15    1
    17    18    15    1
    18    19    20   ar
    19    20    21    1
    20    22    20   ar
    21    23    22    1
    22    24    22   ar
    23    25    24   ar
    24    26    25    1
    25    27    19   ar
    26    28    27    1
    27    29    24    1
    28    30    31   ar
    29    31    32    1
    30    33    31   ar
    31    34    33    1
    32    35    33   ar
    33    36    35   ar
    34    37    36    1
    35    38    30   ar
    36    39    38    1
    37    40    35    1
    38    41    42    1
    39    42    43    1
    40    44    42    1
    41    45    42    1
    42    46    41    1
    43    47    46   ar
    44    48    47    1
    45    49    47   ar
    46    50    49    1
    47    51    49   ar
    48    52    51    1
    49    53    51   ar
    50    54    53    1
    51    55    54    1
    52    56    55    1
    53    57    55    1
    54    58    55    1
    55    59    60   ar
    56    60    61    1
    57    62    60   ar
    58    63    62    1
    59    64    62   ar
    60    65    64   ar
    61    66    65    1
    62    67    59   ar
    63    68    67    1
    64    69    64    1
    65    70    71   ar
    66    71    72    1
    67    73    71   ar
    68    74    73    1
    69    75    73   ar
    70    76    75   ar
    71    77    76    1
    72    78    70   ar
    73    79    78    1
    74    80    75    1
    75    81    82    1
    76    82     1    2
    77    83     6   ar
    78    84    14    2
    79    85    40    3
    80    86    29    3
    81    87    41    2
    82    88    46   ar
    83    89    54    2
    84    90    69    3
    85    91    80    3
    86    13    83   ar
    87    19    82    1
    88    25    27   ar
    89    30    84    1
    90    36    38   ar
    91    53    88   ar
    92    59    87    1
    93    65    67   ar
    94    70    89    1
    95    76    78   ar
    96    81    83    1
    97    81    84    1
    98    81    87    1
    99    81    88    1
   100    81    89    1
   101    92    93    1
   102    94    92    1
   103    95    92    1
   104    96    92    1
   105    97    96    3
   106    98    99    1
   107   100    98    1
   108   101    98    1
   109   102    98    1
   110   103   102    3
   111   104   110    1
   112   105   110    1
   113   106   110    1
   114   107   110    1
   115   108   110    1
   116   109   110    1
   117   111   117    1
   118   112   117    1
   119   113   117    1
   120   114   117    1
   121   115   117    1
   122   116   117    1
@<TRIPOS>SUBSTRUCTURE
     1 RES1        1 GROUP             0 ****  ****    0  
     2 RES2       92 GROUP             0 ****  ****    0  
     3 RES3       98 GROUP             0 ****  ****    0  
     4 RES4      104 GROUP             0 ****  ****    0  
     5 RES5      111 GROUP             0 ****  ****    0  
@<TRIPOS>CRYSIN
   11.5217   32.6571   13.8662   90.0000   98.7320   90.0000   231     1
