@<TRIPOS>MOLECULE
YUPJOJ
    94    92     5     0     0
SMALL
USER_CHARGES
****
Generated from the CSD

@<TRIPOS>ATOM
     1 Fe1     -0.0924   6.5272   0.0000   Fe        1 RES1   2.0000
     2 O1      -1.9273   5.5474   0.2967   O.3       1 RES1   0.0000
     3 O2       0.8978   5.0064   1.0852   O.3       1 RES1   0.0000
     4 O3      -0.3944   7.6523   1.8045   O.3       1 RES1   0.0000
     5 O1A      1.7425   7.5071  -0.2967   O.3       1 RES1   0.0000
     6 O2A     -1.0826   8.0481  -1.0852   O.3       1 RES1   0.0000
     7 O3A      0.2096   5.4022  -1.8045   O.3       1 RES1   0.0000
     8 I1       6.3913   7.8515   5.3981   I         2 RES2   0.0000
     9 I2       6.2637  10.2487   3.7603   I         2 RES2  -1.0000
    10 I3       6.1729  12.6423   2.1330   I         2 RES2   0.0000
    11 C1      -1.1188  11.3880   3.0133   C.3       3 RES3   0.0000
    12 H1      -0.7987  12.0897   3.6044   H         3 RES3   0.0000
    13 H2      -1.6303  11.8009   2.3044   H         3 RES3   0.0000
    14 C2      -1.8927  10.5385   3.7060   C.3       3 RES3   0.0000
    15 H3      -2.4486  11.1207   4.2486   H         3 RES3   0.0000
    16 H4      -2.4920  10.1725   3.0318   H         3 RES3   0.0000
    17 C3      -2.2963   8.6723   4.9656   C.3       3 RES3   0.0000
    18 H5      -2.6101   8.0307   4.3098   H         3 RES3   0.0000
    19 H6      -3.0596   8.9912   5.4712   H         3 RES3   0.0000
    20 C4       0.8933   7.3667   5.4620   C.3       3 RES3   0.0000
    21 H7       0.9269   7.2932   6.4295   H         3 RES3   0.0000
    22 H8       1.3523   6.5932   5.0972   H         3 RES3   0.0000
    23 C5       1.5893   8.5039   5.0914   C.3       3 RES3   0.0000
    24 H9       1.1651   9.2947   5.4551   H         3 RES3   0.0000
    25 H10      2.5021   8.4648   5.4181   H         3 RES3   0.0000
    26 C6       1.9829   9.9625   3.3365   C.3       3 RES3   0.0000
    27 H11      2.5154  10.2977   4.0777   H         3 RES3   0.0000
    28 H12      2.5842   9.8770   2.5838   H         3 RES3   0.0000
    29 C7       1.1631  10.8898   3.0479   C.3       3 RES3   0.0000
    30 H13      0.9111  11.3201   3.8722   H         3 RES3   0.0000
    31 H14      1.6539  11.5406   2.5215   H         3 RES3   0.0000
    32 C8      -1.3325   8.0366   5.8638   C.3       3 RES3   0.0000
    33 H15     -0.8314   8.7056   6.3579   H         3 RES3   0.0000
    34 H16     -1.7828   7.4551   6.4941   H         3 RES3   0.0000
    35 O4      -0.4992   7.3144   5.0452   O.3       3 RES3   0.0000
    36 O5      -1.6876   9.7086   4.3410   O.3       3 RES3   0.0000
    37 O6       0.0942  10.6353   2.4118   O.3       3 RES3   0.0000
    38 O7       1.5933   8.5687   3.7164   O.3       3 RES3   0.0000
    39 C9      -4.0052   8.2710   1.0287   C.3       4 RES4   0.0000
    40 H17     -4.5683   8.7150   1.6821   H         4 RES4   0.0000
    41 H18     -3.4244   7.6587   1.5066   H         4 RES4   0.0000
    42 C10     -4.8636   7.4947   0.1074   C.3       4 RES4   0.0000
    43 H19     -5.4258   6.8899   0.6188   H         4 RES4   0.0000
    44 H20     -5.4402   8.0972  -0.3868   H         4 RES4   0.0000
    45 C11     -4.5769   6.5505  -2.0908   C.3       4 RES4   0.0000
    46 H21     -5.5187   6.7817  -2.1197   H         4 RES4   0.0000
    47 H22     -4.4904   5.6119  -2.3171   H         4 RES4   0.0000
    48 C12     -3.8447   7.3617  -3.0802   C.3       4 RES4   0.0000
    49 H23     -2.8940   7.1740  -3.0237   H         4 RES4   0.0000
    50 H24     -4.1465   7.1437  -3.9750   H         4 RES4   0.0000
    51 C13     -3.2443   9.5594  -3.7002   C.3       4 RES4   0.0000
    52 H25     -2.3411   9.2137  -3.7833   H         4 RES4   0.0000
    53 H26     -3.6359   9.6301  -4.5846   H         4 RES4   0.0000
    54 C14     -3.2408  10.8711  -3.0237   C.3       4 RES4   0.0000
    55 H27     -2.9317  11.5550  -3.6379   H         4 RES4   0.0000
    56 H28     -4.1437  11.0989  -2.7489   H         4 RES4   0.0000
    57 C15     -3.0100  11.2999  -0.7112   C.3       4 RES4   0.0000
    58 H29     -3.5156  12.0975  -0.9340   H         4 RES4   0.0000
    59 H30     -2.3153  11.5642  -0.0877   H         4 RES4   0.0000
    60 C16     -3.8933  10.3764  -0.0416   C.3       4 RES4   0.0000
    61 H31     -4.2951  10.8120   0.7250   H         4 RES4   0.0000
    62 H32     -4.6046  10.1132  -0.6465   H         4 RES4   0.0000
    63 O8      -3.2021   9.2490   0.3775   O.3       4 RES4   0.0000
    64 O9      -2.3910  10.8309  -1.8853   O.3       4 RES4   0.0000
    65 O10     -4.0808   6.7656  -0.7781   O.3       4 RES4   0.0000
    66 O11     -4.0720   8.6728  -2.8228   O.3       4 RES4   0.0000
    67 C17      3.4664  10.9376  -0.6916   C.3       5 RES5   0.0000
    68 H33      3.5265  11.7029  -0.0993   H         5 RES5   0.0000
    69 H34      3.5173  11.2524  -1.6082   H         5 RES5   0.0000
    70 C18      4.6039   9.9672  -0.4099   C.3       5 RES5   0.0000
    71 H35      5.4427  10.4535  -0.3902   H         5 RES5   0.0000
    72 H36      4.4706   9.5652   0.4630   H         5 RES5   0.0000
    73 C19      5.2028   9.3488  -2.5492   C.3       5 RES5   0.0000
    74 H37      6.1598   9.1854  -2.5665   H         5 RES5   0.0000
    75 H38      5.0499  10.3011  -2.6623   H         5 RES5   0.0000
    76 C20      4.4893   8.5419  -3.6771   C.3       5 RES5   0.0000
    77 H39      4.9963   8.5807  -4.5026   H         5 RES5   0.0000
    78 H40      4.3794   7.6142  -3.4197   H         5 RES5   0.0000
    79 C21      2.2736   8.2016  -3.9334   C.3       5 RES5   0.0000
    80 H41      2.3366   7.6019  -3.1738   H         5 RES5   0.0000
    81 H42      2.3976   7.6966  -4.7531   H         5 RES5   0.0000
    82 C22      0.9262   8.9792  -3.9392   C.3       5 RES5   0.0000
    83 H43      0.9907   9.7218  -4.5603   H         5 RES5   0.0000
    84 H44      0.2211   8.3914  -4.2509   H         5 RES5   0.0000
    85 C23      0.9134  10.8099  -2.4672   C.3       5 RES5   0.0000
    86 H45      0.2000  11.3816  -2.7905   H         5 RES5   0.0000
    87 H46      1.7237  11.0181  -2.9613   H         5 RES5   0.0000
    88 C24      1.1354  11.0310  -0.9629   C.3       5 RES5   0.0000
    89 H47      1.2699  11.9763  -0.7908   H         5 RES5   0.0000
    90 H48      0.3456  10.7478  -0.4745   H         5 RES5   0.0000
    91 O12      2.3007  10.2786  -0.4872   O.3       5 RES5   0.0000
    92 O13      0.5786   9.4835  -2.6323   O.3       5 RES5   0.0000
    93 O14      3.1541   9.2116  -3.8388   O.3       5 RES5   0.0000
    94 O15      4.6781   8.9240  -1.4085   O.3       5 RES5   0.0000
@<TRIPOS>BOND
     1     1     2    1
     2     3     1    1
     3     4     1    1
     4     5     1    1
     5     6     1    1
     6     7     1    1
     7     8     9    1
     8     9    10    1
     9    11    12    1
    10    13    11    1
    11    14    11    1
    12    15    14    1
    13    16    14    1
    14    17    18    1
    15    19    17    1
    16    20    21    1
    17    22    20    1
    18    23    20    1
    19    24    23    1
    20    25    23    1
    21    26    27    1
    22    28    26    1
    23    29    26    1
    24    30    29    1
    25    31    29    1
    26    32    17    1
    27    33    32    1
    28    34    32    1
    29    35    20    1
    30    36    14    1
    31    37    11    1
    32    38    23    1
    33    17    36    1
    34    26    38    1
    35    29    37    1
    36    32    35    1
    37    39    40    1
    38    41    39    1
    39    42    39    1
    40    43    42    1
    41    44    42    1
    42    45    46    1
    43    47    45    1
    44    48    45    1
    45    49    48    1
    46    50    48    1
    47    51    52    1
    48    53    51    1
    49    54    51    1
    50    55    54    1
    51    56    54    1
    52    57    58    1
    53    59    57    1
    54    60    57    1
    55    61    60    1
    56    62    60    1
    57    63    39    1
    58    64    54    1
    59    65    42    1
    60    66    48    1
    61    45    65    1
    62    51    66    1
    63    57    64    1
    64    60    63    1
    65    67    68    1
    66    69    67    1
    67    70    67    1
    68    71    70    1
    69    72    70    1
    70    73    74    1
    71    75    73    1
    72    76    73    1
    73    77    76    1
    74    78    76    1
    75    79    80    1
    76    81    79    1
    77    82    79    1
    78    83    82    1
    79    84    82    1
    80    85    86    1
    81    87    85    1
    82    88    85    1
    83    89    88    1
    84    90    88    1
    85    91    67    1
    86    92    82    1
    87    93    76    1
    88    94    70    1
    89    73    94    1
    90    79    93    1
    91    85    92    1
    92    88    91    1
@<TRIPOS>SUBSTRUCTURE
     1 RES1        1 GROUP             0 ****  ****    0  
     2 RES2        8 GROUP             0 ****  ****    0  
     3 RES3       11 GROUP             0 ****  ****    0  
     4 RES4       39 GROUP             0 ****  ****    0  
     5 RES5       67 GROUP             0 ****  ****    0  
@<TRIPOS>CRYSIN
   12.8030   13.0558   13.4880  107.7630  114.3990   90.8110     2     1
