@<TRIPOS>MOLECULE
YURSAF
    79    88     1     0     0
SMALL
NO_CHARGES
****
Generated from the CSD

@<TRIPOS>ATOM
     1 Fe1     12.2371   3.8483  12.2118   Fe        1 RES1   0.0000
     2 N1      13.3045   3.7333  13.7496   N.2       1 RES1   0.0000
     3 N2      11.0114   3.8756  10.7680   N.2       1 RES1   0.0000
     4 N3      11.3006   2.4271  13.2253   N.2       1 RES1   0.0000
     5 N4      12.9895   2.4408  11.0361   N.2       1 RES1   0.0000
     6 N5      11.1405   5.3319  12.6599   N.2       1 RES1   0.0000
     7 N6      13.6781   5.1057  11.7990   N.2       1 RES1   0.0000
     8 N7      13.0067   2.8833  14.7884   N.2       1 RES1   0.0000
     9 N8      11.0682   2.9476   9.7585   N.2       1 RES1   0.0000
    10 N9      10.1850   5.6867  11.8323   N.2       1 RES1   0.0000
    11 N10     14.5699   5.3007  12.7323   N.2       1 RES1   0.0000
    12 O1      12.5384   1.2321   9.2029   O.3       1 RES1   0.0000
    13 O2      11.3677   1.2633  15.1523   O.3       1 RES1   0.0000
    14 C1      14.3616   4.5209  13.8239   C.2       1 RES1   0.0000
    15 C2      15.2878   4.6301  15.0154   C.3       1 RES1   0.0000
    16 C3      15.9455   5.9752  15.0721   C.3       1 RES1   0.0000
    17 C4      16.3397   3.5481  14.9684   C.3       1 RES1   0.0000
    18 C5      10.0748   4.7997  10.8150   C.2       1 RES1   0.0000
    19 C6       8.9592   4.9108   9.7859   C.3       1 RES1   0.0000
    20 C7       7.8264   5.7627  10.2907   C.3       1 RES1   0.0000
    21 C8       9.4981   5.4761   8.4673   C.3       1 RES1   0.0000
    22 C9      11.9272   2.2361  14.3854   C.2       1 RES1   0.0000
    23 C10     10.3623   0.7486  14.3717   C.ar      1 RES1   0.0000
    24 C11      9.5101  -0.2983  14.7043   C.ar      1 RES1   0.0000
    25 C12      8.6218  -0.6063  13.7320   C.ar      1 RES1   0.0000
    26 C13      8.5443   0.0214  12.5112   C.ar      1 RES1   0.0000
    27 C14      9.4068   1.0839  12.2040   C.ar      1 RES1   0.0000
    28 C15     10.3193   1.4407  13.1764   C.ar      1 RES1   0.0000
    29 C16     13.9811   1.4719  10.9167   C.ar      1 RES1   0.0000
    30 C17     15.0864   1.2009  11.7012   C.ar      1 RES1   0.0000
    31 C18     15.8921   0.1404  11.2552   C.ar      1 RES1   0.0000
    32 C19     15.5667  -0.5498  10.1165   C.ar      1 RES1   0.0000
    33 C20     14.4959  -0.2768   9.2968   C.ar      1 RES1   0.0000
    34 C21     13.7160   0.7428   9.7840   C.ar      1 RES1   0.0000
    35 C22     12.1665   2.2497  10.0168   C.2       1 RES1   0.0000
    36 C23     11.5123   5.9655  14.9723   C.ar      1 RES1   0.0000
    37 C24     11.9031   6.9227  15.9094   C.ar      1 RES1   0.0000
    38 C25     12.2182   8.1723  15.5338   C.ar      1 RES1   0.0000
    39 C26     12.1338   8.5525  14.1956   C.ar      1 RES1   0.0000
    40 C27     11.7361   7.6128  13.2507   C.ar      1 RES1   0.0000
    41 C28     11.4452   6.3242  13.6342   C.ar      1 RES1   0.0000
    42 C29     14.6198   7.1449  10.8169   C.ar      1 RES1   0.0000
    43 C30     14.8023   7.9676   9.6783   C.ar      1 RES1   0.0000
    44 C31     14.2135   7.6011   8.4947   C.ar      1 RES1   0.0000
    45 C32     13.4526   6.5055   8.3753   C.ar      1 RES1   0.0000
    46 C33     13.2546   5.6613   9.4788   C.ar      1 RES1   0.0000
    47 C34     13.8623   6.0006  10.6976   C.ar      1 RES1   0.0000
    48 H1      14.7748   4.5072  15.8175   H         1 RES1   0.0000
    49 H2      15.2723   6.6575  15.1386   H         1 RES1   0.0000
    50 H3      16.5360   6.0376  15.8273   H         1 RES1   0.0000
    51 H4      16.4464   6.0980  14.2622   H         1 RES1   0.0000
    52 H5      15.9127   2.6884  14.9586   H         1 RES1   0.0000
    53 H6      16.8424   3.6651  14.1585   H         1 RES1   0.0000
    54 H7      16.9319   3.6027  15.7216   H         1 RES1   0.0000
    55 H8       8.6166   4.0335   9.6079   H         1 RES1   0.0000
    56 H9       7.1137   5.8290   9.6509   H         1 RES1   0.0000
    57 H10      7.4924   5.3767  11.1026   H         1 RES1   0.0000
    58 H11      8.1759   6.6380  10.4707   H         1 RES1   0.0000
    59 H12      8.8025   5.5307   7.8080   H         1 RES1   0.0000
    60 H13      9.8372   6.3554   8.6492   H         1 RES1   0.0000
    61 H14     10.2091   4.9205   8.1347   H         1 RES1   0.0000
    62 H15      9.5497  -0.7428  15.5534   H         1 RES1   0.0000
    63 H16      7.9899  -1.3062  13.9178   H         1 RES1   0.0000
    64 H17      7.8987  -0.2788  11.8675   H         1 RES1   0.0000
    65 H18      9.3655   1.5421  11.3628   H         1 RES1   0.0000
    66 H19     15.2981   1.7156  12.4838   H         1 RES1   0.0000
    67 H20     16.6548  -0.1365  11.7658   H         1 RES1   0.0000
    68 H21     16.1624  -1.2516   9.8446   H         1 RES1   0.0000
    69 H22     14.2944  -0.7623   8.4927   H         1 RES1   0.0000
    70 H23     11.2816   5.0726  15.2404   H         1 RES1   0.0000
    71 H24     11.9548   6.6848  16.8387   H         1 RES1   0.0000
    72 H25     12.5057   8.8137  16.1873   H         1 RES1   0.0000
    73 H26     12.3146   9.4570  13.9296   H         1 RES1   0.0000
    74 H27     11.6897   7.8506  12.3214   H         1 RES1   0.0000
    75 H28     15.0055   7.3808  11.6641   H         1 RES1   0.0000
    76 H29     15.3205   8.7747   9.7233   H         1 RES1   0.0000
    77 H30     14.3685   8.1314   7.7102   H         1 RES1   0.0000
    78 H31     13.0411   6.2930   7.5341   H         1 RES1   0.0000
    79 H32     12.7037   4.8776   9.4240   H         1 RES1   0.0000
@<TRIPOS>BOND
     1     1     2    1
     2     2     8   un
     3     3     1    1
     4     4     1    1
     5     5     1    1
     6     6     1    1
     7     7     1    1
     8     8    22    1
     9     9     3   un
    10    10     6   un
    11    11     7   un
    12    12    34    1
    13    13    22    1
    14    14     2   un
    15    15    14    1
    16    16    15    1
    17    17    15    1
    18    18     3   un
    19    19    18    1
    20    20    19    1
    21    21    19    1
    22    22     4    2
    23    23    13    1
    24    24    23   ar
    25    25    24   ar
    26    26    25   ar
    27    27    26   ar
    28    28     4    1
    29    29     5    1
    30    30    29   ar
    31    31    30   ar
    32    32    31   ar
    33    33    32   ar
    34    34    29   ar
    35    35     5    2
    36    36    37   ar
    37    37    38   ar
    38    38    39   ar
    39    39    40   ar
    40    40    41   ar
    41    41     6    1
    42    42    43   ar
    43    43    44   ar
    44    44    45   ar
    45    45    46   ar
    46    46    47   ar
    47    47     7    1
    48    48    15    1
    49    49    16    1
    50    50    16    1
    51    51    16    1
    52    52    17    1
    53    53    17    1
    54    54    17    1
    55    55    19    1
    56    56    20    1
    57    57    20    1
    58    58    20    1
    59    59    21    1
    60    60    21    1
    61    61    21    1
    62    62    24    1
    63    63    25    1
    64    64    26    1
    65    65    27    1
    66    66    30    1
    67    67    31    1
    68    68    32    1
    69    69    33    1
    70    70    36    1
    71    71    37    1
    72    72    38    1
    73    73    39    1
    74    74    40    1
    75    75    42    1
    76    76    43    1
    77    77    44    1
    78    78    45    1
    79    79    46    1
    80     9    35    1
    81    10    18   un
    82    11    14   un
    83    12    35    1
    84    23    28   ar
    85    27    28   ar
    86    33    34   ar
    87    36    41   ar
    88    42    47   ar
@<TRIPOS>SUBSTRUCTURE
     1 RES1        1 GROUP             0 ****  ****    0  
@<TRIPOS>CRYSIN
   17.2160   19.4950   19.5640   90.0000   90.0000   90.0000    61     1
