@<TRIPOS>MOLECULE
YUSHUP
    43    51     1     0     0
SMALL
NO_CHARGES
****
Generated from the CSD

@<TRIPOS>ATOM
     1 Fe1      2.7696   1.6329  -0.9882   Fe        1 RES1   0.0000
     2 O1       3.4767   2.7188   0.4362   O.3       1 RES1   0.0000
     3 O2       3.0658   2.8340  -2.4458   O.3       1 RES1   0.0000
     4 O3       0.8840   1.9382  -0.7412   O.3       1 RES1   0.0000
     5 O4       6.4440   1.2266   4.8363   O.3       1 RES1   0.0000
     6 O5       5.9447   2.1109  -7.0914   O.3       1 RES1   0.0000
     7 O6      -2.2362   2.7188  -5.2379   O.3       1 RES1   0.0000
     8 N1       2.6079  -0.0629   0.4171   N.3       1 RES1   0.0000
     9 N2       4.8897   0.9104  -1.2454   N.3       1 RES1   0.0000
    10 N3       2.2615   0.0668  -2.5003   N.3       1 RES1   0.0000
    11 C1       4.2301   2.3473   1.4679   C.ar      1 RES1   0.0000
    12 C2       5.2929   3.1333   1.9124   C.ar      1 RES1   0.0000
    13 C3       6.0472   2.7994   3.0262   C.ar      1 RES1   0.0000
    14 C4       5.7599   1.6450   3.7163   C.ar      1 RES1   0.0000
    15 C5       4.7299   0.8351   3.2769   C.ar      1 RES1   0.0000
    16 C6       3.9572   1.1598   2.1760   C.ar      1 RES1   0.0000
    17 C7       2.7272   0.3669   1.8297   C.3       1 RES1   0.0000
    18 C8       7.1642   2.2022   5.5486   C.2       1 RES1   0.0000
    19 C9       3.7864   2.6359  -3.5483   C.ar      1 RES1   0.0000
    20 C10      3.2969   3.0167  -4.7991   C.ar      1 RES1   0.0000
    21 C11      4.0341   2.8378  -5.9414   C.ar      1 RES1   0.0000
    22 C12      5.2876   2.2406  -5.8871   C.ar      1 RES1   0.0000
    23 C13      5.8015   1.8584  -4.6647   C.ar      1 RES1   0.0000
    24 C14      5.0645   2.0556  -3.4914   C.ar      1 RES1   0.0000
    25 C15      5.6766   1.7839  -2.1424   C.3       1 RES1   0.0000
    26 C16      7.2063   1.5007  -7.0707   C.2       1 RES1   0.0000
    27 C17      0.1092   2.1631  -1.8220   C.ar      1 RES1   0.0000
    28 C18      0.0859   1.2358  -2.8712   C.ar      1 RES1   0.0000
    29 C19     -0.7012   1.4684  -3.9902   C.ar      1 RES1   0.0000
    30 C20     -1.4961   2.6045  -4.0729   C.ar      1 RES1   0.0000
    31 C21     -1.5069   3.5072  -3.0314   C.ar      1 RES1   0.0000
    32 C22     -0.6965   3.2945  -1.9124   C.ar      1 RES1   0.0000
    33 C23      0.8003  -0.0699  -2.6929   C.3       1 RES1   0.0000
    34 C24     -3.1610   3.7436  -5.3366   C.2       1 RES1   0.0000
    35 C25      3.2583  -1.3740   0.1111   C.3       1 RES1   0.0000
    36 C26      4.7629  -1.2566  -0.1163   C.3       1 RES1   0.0000
    37 C27      5.1458  -0.5465  -1.4059   C.3       1 RES1   0.0000
    38 C28      4.4163  -1.1476  -2.5947   C.3       1 RES1   0.0000
    39 C29      2.9081  -1.2781  -2.4163   C.3       1 RES1   0.0000
    40 C30      2.5845  -1.9896  -1.0983   C.3       1 RES1   0.0000
    41 H1       1.8284  -0.2149   0.3256   H         1 RES1   0.0000
    42 H2       5.1685   1.1514  -0.4497   H         1 RES1   0.0000
    43 H3       2.5372   0.3992  -3.1400   H         1 RES1   0.0000
@<TRIPOS>BOND
     1     1     2    1
     2     2    11    1
     3     3     1    1
     4     4     1    1
     5     5    14    1
     6     6    22    1
     7     7    30    1
     8     8     1    1
     9     9     1    1
    10    10     1    1
    11    11    12   ar
    12    12    13   ar
    13    13    14   ar
    14    14    15   ar
    15    15    16   ar
    16    16    11   ar
    17    17     8    1
    18    18     5    1
    19    19     3    1
    20    20    19   ar
    21    21    20   ar
    22    22    21   ar
    23    23    22   ar
    24    24    19   ar
    25    25     9    1
    26    26     6    1
    27    27     4    1
    28    28    27   ar
    29    29    28   ar
    30    30    29   ar
    31    31    30   ar
    32    32    27   ar
    33    33    10    1
    34    34     7    1
    35    35     8    1
    36    36    35    1
    37    37     9    1
    38    38    37    1
    39    39    10    1
    40    40    35    1
    41    41     8    1
    42    42     9    1
    43    43    10    1
    44    16    17    1
    45    23    24   ar
    46    24    25    1
    47    28    33    1
    48    31    32   ar
    49    36    37    1
    50    38    39    1
    51    39    40    1
@<TRIPOS>SUBSTRUCTURE
     1 RES1        1 GROUP             0 ****  ****    0  
@<TRIPOS>CRYSIN
   13.7370    7.6760   25.8620   90.0000   92.1800   90.0000   231     1
