@<TRIPOS>MOLECULE
YUVWAN
    79    88     3     0     0
SMALL
USER_CHARGES
****
Generated from the CSD

@<TRIPOS>ATOM
     1 Fe1     13.9753   3.4643   3.1334   Fe        1 RES1   1.0000
     2 O1      13.8290   1.6020   2.8294   O.3       1 RES1   0.0000
     3 C1      13.0852   0.6785   3.4276   C.ar      1 RES1   0.0000
     4 C2      12.7013  -0.4551   2.6725   C.ar      1 RES1   0.0000
     5 C3      11.9597  -1.4610   3.2413   C.ar      1 RES1   0.0000
     6 C4      11.5739  -1.4013   4.5653   C.ar      1 RES1   0.0000
     7 C5      11.9422  -0.3142   5.3229   C.ar      1 RES1   0.0000
     8 C6      12.7110   0.7442   4.7908   C.ar      1 RES1   0.0000
     9 N1      13.4446   3.0474   5.1610   N.ar      1 RES1   0.0000
    10 C7      13.1040   1.8492   5.6759   C.ar      1 RES1   0.0000
    11 C8      13.1246   1.6868   7.1004   C.ar      1 RES1   0.0000
    12 C9      13.4499   2.7082   7.9291   C.ar      1 RES1   0.0000
    13 C10     13.7507   3.9816   7.4044   C.ar      1 RES1   0.0000
    14 C11     14.0768   5.1296   8.1841   C.ar      1 RES1   0.0000
    15 C12     14.2592   6.3385   7.6227   C.ar      1 RES1   0.0000
    16 C13     14.1555   6.5153   6.2031   C.ar      1 RES1   0.0000
    17 C14     14.2420   7.7494   5.5558   C.ar      1 RES1   0.0000
    18 C15     14.1871   7.8091   4.1877   C.ar      1 RES1   0.0000
    19 C16     14.0630   6.6181   3.4521   C.ar      1 RES1   0.0000
    20 N2      13.9337   5.4295   4.0357   N.ar      1 RES1   0.0000
    21 C17     13.9467   5.3757   5.3940   C.ar      1 RES1   0.0000
    22 C18     13.7186   4.0951   5.9996   C.ar      1 RES1   0.0000
    23 O2      15.8513   3.4440   3.3099   O.3       1 RES1   0.0000
    24 C19     16.8208   4.0939   2.6823   C.ar      1 RES1   0.0000
    25 C20     18.0464   4.2229   3.3541   C.ar      1 RES1   0.0000
    26 C21     19.1147   4.8345   2.7632   C.ar      1 RES1   0.0000
    27 C22     19.0016   5.3375   1.4809   C.ar      1 RES1   0.0000
    28 C23     17.8230   5.2168   0.7993   C.ar      1 RES1   0.0000
    29 C24     16.6903   4.5992   1.3558   C.ar      1 RES1   0.0000
    30 N3      14.2787   4.2169   1.1597   N.ar      1 RES1   0.0000
    31 C25     15.4480   4.4965   0.5615   C.ar      1 RES1   0.0000
    32 C26     15.4690   4.7091  -0.8508   C.ar      1 RES1   0.0000
    33 C27     14.3350   4.6996  -1.5839   C.ar      1 RES1   0.0000
    34 C28     13.0933   4.4881  -0.9660   C.ar      1 RES1   0.0000
    35 C29     11.8261   4.5275  -1.6501   C.ar      1 RES1   0.0000
    36 C30     10.6840   4.3292  -0.9856   C.ar      1 RES1   0.0000
    37 C31     10.6630   4.0724   0.4119   C.ar      1 RES1   0.0000
    38 C32      9.4977   3.8813   1.1744   C.ar      1 RES1   0.0000
    39 C33      9.5769   3.6806   2.5254   C.ar      1 RES1   0.0000
    40 C34     10.8346   3.6423   3.1408   C.ar      1 RES1   0.0000
    41 N4      11.9586   3.7845   2.4518   N.ar      1 RES1   0.0000
    42 C35     11.8864   4.0139   1.1131   C.ar      1 RES1   0.0000
    43 C36     13.1204   4.2372   0.4144   C.ar      1 RES1   0.0000
    44 H1      12.9564  -0.5197   1.7800   H         1 RES1   0.0000
    45 H2      11.7120  -2.1945   2.7264   H         1 RES1   0.0000
    46 H3      11.0714  -2.0882   4.9404   H         1 RES1   0.0000
    47 H4      11.6767  -0.2748   6.2129   H         1 RES1   0.0000
    48 H5      12.9083   0.8589   7.4633   H         1 RES1   0.0000
    49 H6      13.4731   2.5684   8.8486   H         1 RES1   0.0000
    50 H7      14.1648   5.0412   9.1060   H         1 RES1   0.0000
    51 H8      14.4556   7.0708   8.1621   H         1 RES1   0.0000
    52 H9      14.3385   8.5306   6.0511   H         1 RES1   0.0000
    53 H10     14.2274   8.6286   3.7513   H         1 RES1   0.0000
    54 H11     14.0738   6.6635   2.5229   H         1 RES1   0.0000
    55 H12     18.1344   3.8872   4.2171   H         1 RES1   0.0000
    56 H13     19.9175   4.9134   3.2241   H         1 RES1   0.0000
    57 H14     19.7295   5.7568   1.0788   H         1 RES1   0.0000
    58 H15     17.7698   5.5573  -0.0637   H         1 RES1   0.0000
    59 H16     16.2827   4.8572  -1.2749   H         1 RES1   0.0000
    60 H17     14.3791   4.8345  -2.5033   H         1 RES1   0.0000
    61 H18     11.8044   4.6924  -2.5646   H         1 RES1   0.0000
    62 H19      9.8797   4.3603  -1.4515   H         1 RES1   0.0000
    63 H20      8.6667   3.8896   0.7576   H         1 RES1   0.0000
    64 H21      8.8034   3.5707   3.0304   H         1 RES1   0.0000
    65 H22     10.8839   3.5133   4.0602   H         1 RES1   0.0000
    66 P1      -0.9018   0.5304   6.1295   P.3       2 RES2  -1.0000
    67 F1      -1.7902  -0.4958   5.4234   F         2 RES2   0.0000
    68 F2      -1.7587   1.6474   5.4455   F         2 RES2   0.0000
    69 F3       0.1123   0.5268   4.9036   F         2 RES2   0.0000
    70 F1A     -0.0135  -0.4958   6.8356   F         2 RES2   0.0000
    71 F2A     -0.0450   1.6474   6.8136   F         2 RES2   0.0000
    72 F3A     -1.9160   0.5268   7.3554   F         2 RES2   0.0000
    73 P2       5.4280   2.9865   0.0000   P.3       3 RES3  -1.0000
    74 F4       4.7901   3.9231   1.0003   F         3 RES3   0.0000
    75 F5       4.5547   1.8409   0.5198   F         3 RES3   0.0000
    76 F6       6.5036   2.4907   1.0273   F         3 RES3   0.0000
    77 F4F      6.0659   2.0499  -1.0003   F         3 RES3   0.0000
    78 F5F      6.3013   4.1321  -0.5198   F         3 RES3   0.0000
    79 F6F      4.3524   3.4823  -1.0273   F         3 RES3   0.0000
@<TRIPOS>BOND
     1     1     2    1
     2     2     3    1
     3     3     4   ar
     4     4     5   ar
     5     5     6   ar
     6     6     7   ar
     7     7     8   ar
     8     8     3   ar
     9     9     1    1
    10    10     8    1
    11    11    10   ar
    12    12    11   ar
    13    13    12   ar
    14    14    13   ar
    15    15    14   ar
    16    16    15   ar
    17    17    16   ar
    18    18    17   ar
    19    19    18   ar
    20    20     1    1
    21    21    16   ar
    22    22     9   ar
    23    23     1    1
    24    24    23    1
    25    25    24   ar
    26    26    25   ar
    27    27    26   ar
    28    28    27   ar
    29    29    24   ar
    30    30     1    1
    31    31    29    1
    32    32    31   ar
    33    33    32   ar
    34    34    33   ar
    35    35    34   ar
    36    36    35   ar
    37    37    36   ar
    38    38    37   ar
    39    39    38   ar
    40    40    39   ar
    41    41     1    1
    42    42    37   ar
    43    43    30   ar
    44    44     4    1
    45    45     5    1
    46    46     6    1
    47    47     7    1
    48    48    11    1
    49    49    12    1
    50    50    14    1
    51    51    15    1
    52    52    17    1
    53    53    18    1
    54    54    19    1
    55    55    25    1
    56    56    26    1
    57    57    27    1
    58    58    28    1
    59    59    32    1
    60    60    33    1
    61    61    35    1
    62    62    36    1
    63    63    38    1
    64    64    39    1
    65    65    40    1
    66     9    10   ar
    67    13    22   ar
    68    19    20   ar
    69    20    21   ar
    70    21    22   ar
    71    28    29   ar
    72    30    31   ar
    73    34    43   ar
    74    40    41   ar
    75    41    42   ar
    76    42    43   ar
    77    66    67    1
    78    68    66    1
    79    69    66    1
    80    70    66    1
    81    71    66    1
    82    72    66    1
    83    73    74    1
    84    75    73    1
    85    76    73    1
    86    77    73    1
    87    78    73    1
    88    79    73    1
@<TRIPOS>SUBSTRUCTURE
     1 RES1        1 GROUP             0 ****  ****    0  
     2 RES2       66 GROUP             0 ****  ****    0  
     3 RES3       73 GROUP             0 ****  ****    0  
@<TRIPOS>CRYSIN
   21.7120   11.9460   24.7820   90.0000   98.3700   90.0000    15     1
