@<TRIPOS>MOLECULE
YUWJAE
   191   198     5     0     0
SMALL
USER_CHARGES
****
Generated from the CSD

@<TRIPOS>ATOM
     1 C1       5.9275   6.6060  18.2992   C.1       1 RES1   0.0000
     2 C2       4.1291   5.9863  14.8805   C.1       1 RES1   0.0000
     3 C3       4.1071   4.7285  14.1255   C.3       1 RES1   0.0000
     4 H1       3.2148   4.5573  13.8156   H         1 RES1   0.0000
     5 H2       4.3912   4.0090  14.6949   H         1 RES1   0.0000
     6 H3       4.7002   4.7960  13.3748   H         1 RES1   0.0000
     7 C4       3.7930  11.5349  14.8916   C.3       1 RES1   0.0000
     8 H4       4.0341  11.7579  13.9781   H         1 RES1   0.0000
     9 H5       3.0179  12.0672  15.1282   H         1 RES1   0.0000
    10 C5       6.8164   5.7122  19.0100   C.3       1 RES1   0.0000
    11 H6       7.6387   6.1686  19.2031   H         1 RES1   0.0000
    12 H7       6.9976   4.9423  18.4662   H         1 RES1   0.0000
    13 H8       6.4024   5.4363  19.8297   H         1 RES1   0.0000
    14 C6       3.8945   8.8659  19.9975   C.3       1 RES1   0.0000
    15 H9       4.6112   8.2135  20.0253   H         1 RES1   0.0000
    16 H10      4.0134   9.4666  20.7506   H         1 RES1   0.0000
    17 C7       3.9795   9.1707  13.3289   C.3       1 RES1   0.0000
    18 H11      3.8201   8.2158  13.2593   H         1 RES1   0.0000
    19 H12      3.4767   9.6029  12.6202   H         1 RES1   0.0000
    20 C8       2.5529  10.9132  18.5675   C.3       1 RES1   0.0000
    21 H13      2.2289  10.8668  19.4805   H         1 RES1   0.0000
    22 H14      2.8107  11.8318  18.3939   H         1 RES1   0.0000
    23 C9       0.9795   9.1605  17.8594   C.3       1 RES1   0.0000
    24 H15      0.2084   9.0142  17.2903   H         1 RES1   0.0000
    25 H16      0.6867   9.0637  18.7792   H         1 RES1   0.0000
    26 C10      6.1360  11.1770  15.4890   C.3       1 RES1   0.0000
    27 H17      6.8383  11.5350  16.0532   H         1 RES1   0.0000
    28 H18      6.3874  11.3493  14.5669   H         1 RES1   0.0000
    29 C11      2.3924   7.1459  19.1788   C.3       1 RES1   0.0000
    30 H19      1.5829   6.6629  19.4048   H         1 RES1   0.0000
    31 H20      3.1320   6.5188  19.1945   H         1 RES1   0.0000
    32 C12      6.3033   8.7555  14.0314   C.3       1 RES1   0.0000
    33 H21      7.2226   8.9151  13.7628   H         1 RES1   0.0000
    34 H22      6.1436   7.7989  13.9956   H         1 RES1   0.0000
    35 C13      2.3375   7.6940  21.5464   C.3       1 RES1   0.0000
    36 H23      1.4126   7.3696  21.5395   H         1 RES1   0.0000
    37 C14      5.7615   9.2402  11.6693   C.3       1 RES1   0.0000
    38 H24      5.1624   9.8112  11.1452   H         1 RES1   0.0000
    39 C15      2.3622   8.8598  22.5227   C.3       1 RES1   0.0000
    40 H25      1.8042   9.5663  22.1915   H         1 RES1   0.0000
    41 H26      2.0357   8.5683  23.3781   H         1 RES1   0.0000
    42 H27      3.2625   9.1793  22.6171   H         1 RES1   0.0000
    43 C16      5.5598   7.8249  11.2074   C.3       1 RES1   0.0000
    44 H28      5.7966   7.7547  10.2804   H         1 RES1   0.0000
    45 H29      6.1163   7.2376  11.7253   H         1 RES1   0.0000
    46 H30      4.6398   7.5788  11.3237   H         1 RES1   0.0000
    47 C17      3.1812   6.5181  21.9640   C.ar      1 RES1   0.0000
    48 C18      7.1799   9.7495  11.4591   C.ar      1 RES1   0.0000
    49 C19      2.6407   5.2357  21.9198   C.ar      1 RES1   0.0000
    50 H31      1.7592   5.1164  21.6504   H         1 RES1   0.0000
    51 C20      7.4296  11.0829  11.4978   C.ar      1 RES1   0.0000
    52 H32      6.7078  11.6572  11.6155   H         1 RES1   0.0000
    53 C21      3.4157   4.1313  22.2793   C.ar      1 RES1   0.0000
    54 H33      3.0258   3.2838  22.2838   H         1 RES1   0.0000
    55 C22      8.6847  11.6433  11.3789   C.ar      1 RES1   0.0000
    56 H34      8.8212  12.5613  11.4334   H         1 RES1   0.0000
    57 C23      4.7189   4.2765  22.6223   C.ar      1 RES1   0.0000
    58 H35      5.2276   3.5266  22.8334   H         1 RES1   0.0000
    59 C24      9.7136  10.7721  11.1715   C.ar      1 RES1   0.0000
    60 H36     10.5655  11.1179  11.0326   H         1 RES1   0.0000
    61 C25      5.2978   5.5159  22.6610   C.ar      1 RES1   0.0000
    62 H37      6.1969   5.6127  22.8783   H         1 RES1   0.0000
    63 C26      9.5586   9.4509  11.1549   C.ar      1 RES1   0.0000
    64 H38     10.2939   8.8885  11.0680   H         1 RES1   0.0000
    65 C27      4.5090   6.6346  22.3623   C.ar      1 RES1   0.0000
    66 H39      4.8855   7.4821  22.4329   H         1 RES1   0.0000
    67 C28      8.2567   8.9171  11.2766   C.ar      1 RES1   0.0000
    68 H40      8.1280   7.9966  11.2318   H         1 RES1   0.0000
    69 C29      5.4405  10.9377  18.9132   C.3       1 RES1   0.0000
    70 H41      6.2081  10.3765  19.1025   H         1 RES1   0.0000
    71 H42      5.6726  11.4983  18.1545   H         1 RES1   0.0000
    72 C30      1.5350   9.7556  14.5403   C.3       1 RES1   0.0000
    73 H43      1.2719   8.8307  14.4173   H         1 RES1   0.0000
    74 H44      1.0581  10.0826  15.3198   H         1 RES1   0.0000
    75 C31      5.1977  11.8417  20.1192   C.ar      1 RES1   0.0000
    76 C32      1.0302  10.5226  13.3565   C.ar      1 RES1   0.0000
    77 C33      5.3787  11.3918  21.3915   C.ar      1 RES1   0.0000
    78 H45      5.7323  10.5448  21.5373   H         1 RES1   0.0000
    79 C34      0.7572  11.8928  13.4755   C.ar      1 RES1   0.0000
    80 H46      0.9242  12.3245  14.2817   H         1 RES1   0.0000
    81 C35      5.0344  12.1955  22.4702   C.ar      1 RES1   0.0000
    82 H47      5.1389  11.8755  23.3368   H         1 RES1   0.0000
    83 C36      0.2497  12.6025  12.4272   C.ar      1 RES1   0.0000
    84 H48      0.0685  13.5097  12.5241   H         1 RES1   0.0000
    85 C37      4.5337  13.4738  22.2627   C.ar      1 RES1   0.0000
    86 H49      4.2905  14.0120  22.9810   H         1 RES1   0.0000
    87 C38      0.0110  11.9869  11.2461   C.ar      1 RES1   0.0000
    88 H50     -0.3226  12.4804  10.5318   H         1 RES1   0.0000
    89 C39      4.4075  13.9319  20.9572   C.ar      1 RES1   0.0000
    90 H51      4.1223  14.8041  20.8063   H         1 RES1   0.0000
    91 C40      0.2497  10.6719  11.0885   C.ar      1 RES1   0.0000
    92 H52      0.0888  10.2618  10.2691   H         1 RES1   0.0000
    93 C41      4.6915  13.1240  19.8924   C.ar      1 RES1   0.0000
    94 H53      4.5500  13.4257  19.0242   H         1 RES1   0.0000
    95 C42      0.7394   9.9294  12.1644   C.ar      1 RES1   0.0000
    96 H54      0.8703   9.0131  12.0662   H         1 RES1   0.0000
    97 C43      0.2894  11.4777  17.7267   C.3       1 RES1   0.0000
    98 H55     -0.3462  11.1476  17.0581   H         1 RES1   0.0000
    99 C44      5.2045  13.3899  15.7684   C.3       1 RES1   0.0000
   100 H56      5.8823  13.5179  16.4652   H         1 RES1   0.0000
   101 C45      0.6708  12.8704  17.2703   C.3       1 RES1   0.0000
   102 H57     -0.0954  13.4448  17.3213   H         1 RES1   0.0000
   103 H58      1.3672  13.2123  17.8356   H         1 RES1   0.0000
   104 H59      0.9847  12.8341  16.3631   H         1 RES1   0.0000
   105 C46      3.9946  14.1753  16.2358   C.3       1 RES1   0.0000
   106 H60      3.6544  13.7896  17.0464   H         1 RES1   0.0000
   107 H61      4.2479  15.0872  16.3970   H         1 RES1   0.0000
   108 H62      3.3142  14.1476  15.5586   H         1 RES1   0.0000
   109 C47     -0.4458  11.4511  19.0294   C.ar      1 RES1   0.0000
   110 C48      5.8273  13.8971  14.5071   C.ar      1 RES1   0.0000
   111 C49     -1.6050  10.7271  19.1483   C.ar      1 RES1   0.0000
   112 H63     -1.9305  10.2541  18.4164   H         1 RES1   0.0000
   113 C50      7.2636  14.0526  14.4988   C.ar      1 RES1   0.0000
   114 H64      7.7497  13.8392  15.2633   H         1 RES1   0.0000
   115 C51     -2.2895  10.6944  20.3432   C.ar      1 RES1   0.0000
   116 H65     -3.0710  10.1964  20.4242   H         1 RES1   0.0000
   117 C52      7.9193  14.5086  13.3897   C.ar      1 RES1   0.0000
   118 H66      8.8407  14.6354  13.3850   H         1 RES1   0.0000
   119 C53     -1.8135  11.3999  21.4053   C.ar      1 RES1   0.0000
   120 H67     -2.2717  11.3645  22.2133   H         1 RES1   0.0000
   121 C54      7.1840  14.7602  12.3249   C.ar      1 RES1   0.0000
   122 H68      7.6523  15.0383  11.5717   H         1 RES1   0.0000
   123 C55     -0.6969  12.1485  21.3168   C.ar      1 RES1   0.0000
   124 H69     -0.3771  12.6093  22.0584   H         1 RES1   0.0000
   125 C56      5.8109  14.6661  12.1727   C.ar      1 RES1   0.0000
   126 H70      5.3811  14.8808  11.3761   H         1 RES1   0.0000
   127 C57     -0.0384  12.2180  20.1136   C.ar      1 RES1   0.0000
   128 H71      0.6899  12.7887  20.0233   H         1 RES1   0.0000
   129 C58      5.0605  14.1896  13.4036   C.ar      1 RES1   0.0000
   130 H72      4.1351  14.0997  13.4101   H         1 RES1   0.0000
   131 C59      1.3087   6.5344  16.6231   C.3       1 RES1   0.0000
   132 H73      1.2549   6.7656  15.6825   H         1 RES1   0.0000
   133 H74      1.8077   5.7050  16.6933   H         1 RES1   0.0000
   134 C60      7.6875   8.9334  16.5263   C.3       1 RES1   0.0000
   135 H75      7.6130   9.0940  17.4800   H         1 RES1   0.0000
   136 H76      7.8470   7.9850  16.4044   H         1 RES1   0.0000
   137 C61     -0.1015   6.3033  17.1513   C.ar      1 RES1   0.0000
   138 C62      8.8562   9.6554  16.0367   C.ar      1 RES1   0.0000
   139 C63     -0.3100   5.4464  18.2135   C.ar      1 RES1   0.0000
   140 H77      0.3891   4.9333  18.5495   H         1 RES1   0.0000
   141 C64      9.2431  10.8314  16.6535   C.ar      1 RES1   0.0000
   142 H78      8.7540  11.1285  17.3868   H         1 RES1   0.0000
   143 C65     -1.5529   5.3605  18.7639   C.ar      1 RES1   0.0000
   144 H79     -1.6916   4.7726  19.4697   H         1 RES1   0.0000
   145 C66     10.3281  11.5861  16.2331   C.ar      1 RES1   0.0000
   146 H80     10.5732  12.3451  16.7098   H         1 RES1   0.0000
   147 C67     -2.5968   6.1049  18.3130   C.ar      1 RES1   0.0000
   148 H81     -3.4147   6.0831  18.7544   H         1 RES1   0.0000
   149 C68     11.0181  11.2322  15.1544   C.ar      1 RES1   0.0000
   150 H82     11.7079  11.7736  14.8441   H         1 RES1   0.0000
   151 C69     -2.4281   6.8841  17.2067   C.ar      1 RES1   0.0000
   152 H83     -3.1538   7.3294  16.8334   H         1 RES1   0.0000
   153 C70     10.7013  10.0399  14.4878   C.ar      1 RES1   0.0000
   154 H84     11.2041   9.7578  13.7592   H         1 RES1   0.0000
   155 C71     -1.1688   7.0089  16.6397   C.ar      1 RES1   0.0000
   156 H85     -1.0441   7.5731  15.9116   H         1 RES1   0.0000
   157 C72      9.6162   9.2832  14.9414   C.ar      1 RES1   0.0000
   158 H86      9.3966   8.4990  14.4922   H         1 RES1   0.0000
   159 Fe1      4.1742   8.5176  16.6294   Fe        1 RES1   2.0000
   160 N1       4.1496   6.9700  15.4254   N.1       1 RES1   0.0000
   161 N2       2.6187   8.1726  20.1440   N.3       1 RES1   0.0000
   162 N3       5.4130   9.4243  13.1104   N.3       1 RES1   0.0000
   163 N4       1.4541  10.5553  17.6603   N.3       1 RES1   0.0000
   164 N5       4.9014  11.9031  15.7712   N.3       1 RES1   0.0000
   165 N6       5.2347   7.3320  17.7405   N.1       1 RES1   0.0000
   166 P1       4.0356   9.8491  18.4167   P.3       1 RES1   0.0000
   167 P2       3.3307   9.7611  14.9594   P.3       1 RES1   0.0000
   168 P3       2.2307   7.8517  17.5012   P.3       1 RES1   0.0000
   169 P4       6.0553   9.3521  15.7402   P.3       1 RES1   0.0000
   170 C73      9.5599  13.5883  23.0787   C.1       2 RES2   0.0000
   171 C74      8.5517  12.6721  22.4785   C.3       2 RES2   0.0000
   172 H87      7.8036  12.5852  23.0725   H         2 RES2   0.0000
   173 H88      8.9488  11.8104  22.3336   H         2 RES2   0.0000
   174 H89      8.2538  13.0318  21.6388   H         2 RES2   0.0000
   175 N7      10.2938  14.2735  23.5323   N.1       2 RES2   0.0000
   176 C75     -1.6749   6.4465  22.2323   C.1       3 RES3   0.0000
   177 C76     -1.7339   7.7452  21.6542   C.3       3 RES3   0.0000
   178 H90     -1.0623   8.3042  22.0516   H         3 RES3   0.0000
   179 H91     -2.6011   8.1263  21.8108   H         3 RES3   0.0000
   180 H92     -1.5787   7.6812  20.7089   H         3 RES3   0.0000
   181 N8      -1.6324   5.4177  22.6278   N.1       3 RES3   0.0000
   182 B1       8.2074   8.4733  21.1425   B         4 RES4  -1.0000
   183 F1       6.9549   8.3465  21.1453   F         4 RES4   0.0000
   184 F2       8.8041   7.3545  21.1979   F         4 RES4   0.0000
   185 F3       8.7478   9.3200  21.9861   F         4 RES4   0.0000
   186 F4       8.4502   8.8659  19.9670   F         4 RES4   0.0000
   187 B2       0.9218   5.8329  12.2529   B         5 RES5  -1.0000
   188 F5      -0.0549   6.2358  11.5255   F         5 RES5   0.0000
   189 F6       2.0124   6.4281  12.2585   F         5 RES5   0.0000
   190 F7       0.6187   6.0211  13.4672   F         5 RES5   0.0000
   191 F8       1.0206   4.6017  12.2197   F         5 RES5   0.0000
@<TRIPOS>BOND
     1     1    10    1
     2     2     3    1
     3     3     4    1
     4     5     3    1
     5     6     3    1
     6     7     8    1
     7     9     7    1
     8    10    11    1
     9    12    10    1
    10    13    10    1
    11    14    15    1
    12    16    14    1
    13    17    18    1
    14    19    17    1
    15    20    21    1
    16    22    20    1
    17    23    24    1
    18    25    23    1
    19    26    27    1
    20    28    26    1
    21    29    30    1
    22    31    29    1
    23    32    33    1
    24    34    32    1
    25    35    36    1
    26    37    38    1
    27    39    35    1
    28    40    39    1
    29    41    39    1
    30    42    39    1
    31    43    37    1
    32    44    43    1
    33    45    43    1
    34    46    43    1
    35    47    35    1
    36    48    37    1
    37    49    47   ar
    38    50    49    1
    39    51    48   ar
    40    52    51    1
    41    53    49   ar
    42    54    53    1
    43    55    51   ar
    44    56    55    1
    45    57    53   ar
    46    58    57    1
    47    59    55   ar
    48    60    59    1
    49    61    57   ar
    50    62    61    1
    51    63    59   ar
    52    64    63    1
    53    65    47   ar
    54    66    65    1
    55    67    48   ar
    56    68    67    1
    57    69    70    1
    58    71    69    1
    59    72    73    1
    60    74    72    1
    61    75    69    1
    62    76    72    1
    63    77    75   ar
    64    78    77    1
    65    79    76   ar
    66    80    79    1
    67    81    77   ar
    68    82    81    1
    69    83    79   ar
    70    84    83    1
    71    85    81   ar
    72    86    85    1
    73    87    83   ar
    74    88    87    1
    75    89    85   ar
    76    90    89    1
    77    91    87   ar
    78    92    91    1
    79    93    75   ar
    80    94    93    1
    81    95    76   ar
    82    96    95    1
    83    97    98    1
    84    99   100    1
    85   101    97    1
    86   102   101    1
    87   103   101    1
    88   104   101    1
    89   105    99    1
    90   106   105    1
    91   107   105    1
    92   108   105    1
    93   109    97    1
    94   110    99    1
    95   111   109   ar
    96   112   111    1
    97   113   110   ar
    98   114   113    1
    99   115   111   ar
   100   116   115    1
   101   117   113   ar
   102   118   117    1
   103   119   115   ar
   104   120   119    1
   105   121   117   ar
   106   122   121    1
   107   123   119   ar
   108   124   123    1
   109   125   121   ar
   110   126   125    1
   111   127   109   ar
   112   128   127    1
   113   129   110   ar
   114   130   129    1
   115   131   132    1
   116   133   131    1
   117   134   135    1
   118   136   134    1
   119   137   131    1
   120   138   134    1
   121   139   137   ar
   122   140   139    1
   123   141   138   ar
   124   142   141    1
   125   143   139   ar
   126   144   143    1
   127   145   141   ar
   128   146   145    1
   129   147   143   ar
   130   148   147    1
   131   149   145   ar
   132   150   149    1
   133   151   147   ar
   134   152   151    1
   135   153   149   ar
   136   154   153    1
   137   155   137   ar
   138   156   155    1
   139   157   138   ar
   140   158   157    1
   141   159   160    1
   142   160     2    3
   143   161    14    1
   144   162    17    1
   145   163    20    1
   146   164     7    1
   147   165     1    3
   148   166    14    1
   149   167     7    1
   150   168    23    1
   151   169    26    1
   152    17   167    1
   153    20   166    1
   154    23   163    1
   155    26   164    1
   156    29   161    1
   157    29   168    1
   158    32   162    1
   159    32   169    1
   160    35   161    1
   161    37   162    1
   162    61    65   ar
   163    63    67   ar
   164    69   166    1
   165    72   167    1
   166    89    93   ar
   167    91    95   ar
   168    97   163    1
   169    99   164    1
   170   123   127   ar
   171   125   129   ar
   172   131   168    1
   173   134   169    1
   174   151   155   ar
   175   153   157   ar
   176   159   165    1
   177   159   166    1
   178   159   167    1
   179   159   168    1
   180   159   169    1
   181   170   171    1
   182   171   172    1
   183   173   171    1
   184   174   171    1
   185   175   170    3
   186   176   177    1
   187   177   178    1
   188   179   177    1
   189   180   177    1
   190   181   176    3
   191   182   183    1
   192   184   182    1
   193   185   182    1
   194   186   182    1
   195   187   188    1
   196   189   187    1
   197   190   187    1
   198   191   187    1
@<TRIPOS>SUBSTRUCTURE
     1 RES1        1 GROUP             0 ****  ****    0  
     2 RES2      170 GROUP             0 ****  ****    0  
     3 RES3      176 GROUP             0 ****  ****    0  
     4 RES4      182 GROUP             0 ****  ****    0  
     5 RES5      187 GROUP             0 ****  ****    0  
@<TRIPOS>CRYSIN
   13.7178   20.4520   27.6590   90.0000   90.0000   90.0000    19     1
