@<TRIPOS>MOLECULE
YUXYAS
    98   102     8     0     0
SMALL
USER_CHARGES
****
Generated from the CSD

@<TRIPOS>ATOM
     1 C1      15.5110  12.4786  16.5978   C.3       1 RES1   0.0000
     2 H1      16.3288  12.6516  17.0682   H         1 RES1   0.0000
     3 H2      14.7915  12.3854  17.2274   H         1 RES1   0.0000
     4 H3      15.3238  13.2088  16.0035   H         1 RES1   0.0000
     5 C2      15.6492  11.1985  15.7979   C.ar      1 RES1   0.0000
     6 C3      15.5848  11.2075  14.4190   C.ar      1 RES1   0.0000
     7 H4      15.4552  12.0170  13.9796   H         1 RES1   0.0000
     8 C4      15.7065  10.0552  13.6740   C.ar      1 RES1   0.0000
     9 H5      15.6236  10.0871  12.7487   H         1 RES1   0.0000
    10 C5      15.9540   8.8516  14.3078   C.ar      1 RES1   0.0000
    11 C6      16.0075   8.8197  15.6866   C.ar      1 RES1   0.0000
    12 H6      16.1444   8.0113  16.1246   H         1 RES1   0.0000
    13 C7      15.8567   9.9824  16.4175   C.ar      1 RES1   0.0000
    14 H7      15.8960   9.9451  17.3471   H         1 RES1   0.0000
    15 C8      16.1847   7.6325  13.5120   C.ar      1 RES1   0.0000
    16 C9      17.3007   6.8190  13.7923   C.ar      1 RES1   0.0000
    17 H8      17.8243   6.9915  14.5430   H         1 RES1   0.0000
    18 C10     17.6125   5.7870  12.9726   C.ar      1 RES1   0.0000
    19 C11     15.4077   7.3004  12.4079   C.ar      1 RES1   0.0000
    20 H9      14.6683   7.8197  12.1882   H         1 RES1   0.0000
    21 C12     15.7308   6.2097  11.6431   C.ar      1 RES1   0.0000
    22 C13     18.8046   4.9310  13.0247   C.ar      1 RES1   0.0000
    23 C14     19.7896   4.9703  13.9670   C.ar      1 RES1   0.0000
    24 H10     19.6779   5.5438  14.6909   H         1 RES1   0.0000
    25 C15     20.9770   3.4013  12.8909   C.ar      1 RES1   0.0000
    26 H11     21.7412   2.8780  12.7994   H         1 RES1   0.0000
    27 C16     19.9928   3.2546  11.9516   C.ar      1 RES1   0.0000
    28 H12     20.0809   2.6154  11.2826   H         1 RES1   0.0000
    29 C17     15.0285   5.6481  10.4868   C.ar      1 RES1   0.0000
    30 C18     13.8885   6.1494   9.8939   C.ar      1 RES1   0.0000
    31 H13     13.5461   6.9534  10.2136   H         1 RES1   0.0000
    32 C19     13.8012   4.4292   8.4686   C.ar      1 RES1   0.0000
    33 H14     13.3825   3.9747   7.7743   H         1 RES1   0.0000
    34 C20     14.9563   3.8891   8.9883   C.ar      1 RES1   0.0000
    35 H15     15.3013   3.1020   8.6348   H         1 RES1   0.0000
    36 C21     16.0235   2.6710  13.1656   C.ar      1 RES1   0.0000
    37 H16     15.8234   3.5065  13.5233   H         1 RES1   0.0000
    38 C22     15.7409   1.5276  13.8839   C.ar      1 RES1   0.0000
    39 H17     15.3568   1.6188  14.7261   H         1 RES1   0.0000
    40 C23     16.5246   0.2129  12.2191   C.ar      1 RES1   0.0000
    41 H18     16.7070  -0.6300  11.8699   H         1 RES1   0.0000
    42 C24     16.8213   1.3268  11.4586   C.ar      1 RES1   0.0000
    43 C25     17.4868   1.3249  10.1488   C.ar      1 RES1   0.0000
    44 C26     17.8157   0.2213   9.3798   C.ar      1 RES1   0.0000
    45 H19     17.5909  -0.6343   9.6643   H         1 RES1   0.0000
    46 C27     18.5022   0.4156   8.1503   C.ar      1 RES1   0.0000
    47 C28     18.8009   1.7191   7.7771   C.ar      1 RES1   0.0000
    48 H20     19.2547   1.8787   6.9814   H         1 RES1   0.0000
    49 C29     18.4227   2.7877   8.5827   C.ar      1 RES1   0.0000
    50 C30     18.8576  -0.7350   7.3067   C.ar      1 RES1   0.0000
    51 C31     18.8995  -2.0424   7.8250   C.ar      1 RES1   0.0000
    52 H21     18.7226  -2.1824   8.7278   H         1 RES1   0.0000
    53 C32     19.1970  -3.1155   7.0208   C.ar      1 RES1   0.0000
    54 H22     19.2199  -3.9679   7.3926   H         1 RES1   0.0000
    55 C33     19.4656  -2.9592   5.6673   C.ar      1 RES1   0.0000
    56 C34     19.7332  -4.1319   4.8040   C.3       1 RES1   0.0000
    57 H23     19.7866  -4.9222   5.3462   H         1 RES1   0.0000
    58 H24     20.5640  -4.0055   4.3406   H         1 RES1   0.0000
    59 H25     19.0227  -4.2283   4.1660   H         1 RES1   0.0000
    60 C35     19.4237  -1.6717   5.1589   C.ar      1 RES1   0.0000
    61 H26     19.6039  -1.5351   4.2561   H         1 RES1   0.0000
    62 C36     19.1172  -0.5757   5.9617   C.ar      1 RES1   0.0000
    63 H27     19.0855   0.2741   5.5857   H         1 RES1   0.0000
    64 C37     18.6184   4.2084   8.3503   C.ar      1 RES1   0.0000
    65 C38     19.1568   4.7931   7.2109   C.ar      1 RES1   0.0000
    66 H28     19.4384   4.2392   6.5194   H         1 RES1   0.0000
    67 C39     18.9206   6.8375   8.0785   C.ar      1 RES1   0.0000
    68 H29     19.0396   7.7584   8.0208   H         1 RES1   0.0000
    69 C40     18.3625   6.3162   9.2390   C.ar      1 RES1   0.0000
    70 H30     18.1003   6.8879   9.9235   H         1 RES1   0.0000
    71 Fe1     17.3093   4.0247  10.8303   Fe        1 RES1   2.0000
    72 N1      18.1997   4.9971   9.3756   N.ar      1 RES1   0.0000
    73 N2      19.2881   6.0976   7.0630   N.ar      1 RES1   0.0000
    74 N3      17.7820   2.5704   9.7502   N.ar      1 RES1   0.0000
    75 N4      16.5935   2.5770  11.9403   N.ar      1 RES1   0.0000
    76 N5      15.9876   0.3015  13.4346   N.ar      1 RES1   0.0000
    77 N6      18.8919   4.0403  11.9980   N.ar      1 RES1   0.0000
    78 N7      20.9211   4.2290  13.9162   N.ar      1 RES1   0.0000
    79 N8      16.8467   5.4744  11.9135   N.ar      1 RES1   0.0000
    80 N9      15.5847   4.4935   9.9995   N.ar      1 RES1   0.0000
    81 N10     13.2516   5.5539   8.8954   N.ar      1 RES1   0.0000
    82 O1      13.9024  11.4680  11.0699   O.3       2 RES2   0.0000
    83 H31     14.5191  11.1927  10.5333   H         2 RES2   0.0000
    84 H32     13.5980  10.6954  11.3009   H         2 RES2   0.0000
    85 O2      19.4423  10.3931   8.2010   O.3       3 RES3   0.0000
    86 H33     19.6114  11.2238   8.2672   H         3 RES3   0.0000
    87 H34     18.6494  10.3135   7.9053   H         3 RES3   0.0000
    88 O3       8.8540   9.0431   9.9108   O.3       4 RES4   0.0000
    89 H35      9.3641   9.5518   9.4601   H         4 RES4   0.0000
    90 H36      8.3310   8.6548   9.3643   H         4 RES4   0.0000
    91 O4      18.7044   8.8522  11.4572   O.3       5 RES5   0.0000
    92 H37     18.7671   8.9605  12.2980   H         5 RES5   0.0000
    93 H38     18.0387   9.3069  11.1868   H         5 RES5   0.0000
    94 O5       9.3858   7.6205  11.3121   O.3       6 RES6   0.0000
    95 H39      9.4337   6.7771  11.2122   H         6 RES6   0.0000
    96 H40     10.1580   7.8992  11.5290   H         6 RES6   0.0000
    97 Cl1     16.3294   9.6879   9.7756   Cl        7 RES7  -1.0000
    98 Cl2     11.9460   8.8387  11.7178   Cl        8 RES8  -1.0000
@<TRIPOS>BOND
     1     1     2    1
     2     3     1    1
     3     4     1    1
     4     5     1    1
     5     6     5   ar
     6     7     6    1
     7     8     6   ar
     8     9     8    1
     9    10     8   ar
    10    11    10   ar
    11    12    11    1
    12    13     5   ar
    13    14    13    1
    14    15    10    1
    15    16    15   ar
    16    17    16    1
    17    18    16   ar
    18    19    15   ar
    19    20    19    1
    20    21    19   ar
    21    22    18    1
    22    23    22   ar
    23    24    23    1
    24    25    26    1
    25    27    25   ar
    26    28    27    1
    27    29    21    1
    28    30    29   ar
    29    31    30    1
    30    32    33    1
    31    34    32   ar
    32    35    34    1
    33    36    37    1
    34    38    36   ar
    35    39    38    1
    36    40    41    1
    37    42    40   ar
    38    43    42    1
    39    44    43   ar
    40    45    44    1
    41    46    44   ar
    42    47    46   ar
    43    48    47    1
    44    49    47   ar
    45    50    46    1
    46    51    50   ar
    47    52    51    1
    48    53    51   ar
    49    54    53    1
    50    55    53   ar
    51    56    55    1
    52    57    56    1
    53    58    56    1
    54    59    56    1
    55    60    55   ar
    56    61    60    1
    57    62    50   ar
    58    63    62    1
    59    64    49    1
    60    65    64   ar
    61    66    65    1
    62    67    68    1
    63    69    67   ar
    64    70    69    1
    65    71    72    1
    66    72    64   ar
    67    73    65   ar
    68    74    43   ar
    69    75    36   ar
    70    76    38   ar
    71    77    22   ar
    72    78    23   ar
    73    79    18   ar
    74    80    29   ar
    75    81    30   ar
    76    11    13   ar
    77    21    79   ar
    78    25    78   ar
    79    27    77   ar
    80    32    81   ar
    81    34    80   ar
    82    40    76   ar
    83    42    75   ar
    84    49    74   ar
    85    60    62   ar
    86    67    73   ar
    87    69    72   ar
    88    71    74    1
    89    71    75    1
    90    71    77    1
    91    71    79    1
    92    71    80    1
    93    82    83    1
    94    84    82    1
    95    85    86    1
    96    87    85    1
    97    88    89    1
    98    90    88    1
    99    91    92    1
   100    93    91    1
   101    94    95    1
   102    96    94    1
@<TRIPOS>SUBSTRUCTURE
     1 RES1        1 GROUP             0 ****  ****    0  
     2 RES2       82 GROUP             0 ****  ****    0  
     3 RES3       85 GROUP             0 ****  ****    0  
     4 RES4       88 GROUP             0 ****  ****    0  
     5 RES5       91 GROUP             0 ****  ****    0  
     6 RES6       94 GROUP             0 ****  ****    0  
     7 RES7       97 GROUP             0 ****  ****    0  
     8 RES8       98 GROUP             0 ****  ****    0  
@<TRIPOS>CRYSIN
   12.1633   12.6856   15.0850   77.5880   69.4400   64.5110     2     1
