@<TRIPOS>MOLECULE
YUYZUQ
    76    78     2     0     0
SMALL
USER_CHARGES
****
Generated from the CSD

@<TRIPOS>ATOM
     1 Cl1     10.5927  10.6803   7.4011   Cl        1 RES1  -1.0000
     2 Fe1     17.0874  10.5066   4.9341   Fe        2 RES2   0.0000
     3 Se1     19.5814  12.0435   8.9215   Se        2 RES2   0.0000
     4 O1      18.6258   9.2990   4.7574   O.3       2 RES2  -1.0000
     5 O2      20.5605   7.9752   3.5466   O.3       2 RES2   0.0000
     6 N1      16.2625   9.1337   6.3117   N.2       2 RES2   0.0000
     7 N2      18.0537  11.5068   6.5367   N.2       2 RES2   0.0000
     8 N3      12.9648  10.4253   5.3969   N.4       2 RES2   1.0000
     9 H1      12.3921  10.6912   6.0239   H         2 RES2   0.0000
    10 H2      13.6983  10.9250   5.4726   H         2 RES2   0.0000
    11 C1      18.6084   7.9710   4.8334   C.ar      2 RES2   0.0000
    12 C2      16.6329   7.9080   6.3689   C.2       2 RES2   0.0000
    13 H3      16.1925   7.3720   6.9888   H         2 RES2   0.0000
    14 C3      19.6177   7.2215   4.1959   C.ar      2 RES2   0.0000
    15 C4      17.6604   7.2664   5.5765   C.ar      2 RES2   0.0000
    16 C5      18.6313  11.6931   7.4396   C.1       2 RES2   0.0000
    17 C6      15.2137   9.5498   7.2708   C.3       2 RES2   0.0000
    18 H4      15.0789  10.5070   7.1971   H         2 RES2   0.0000
    19 H5      15.5161   9.3608   8.1726   H         2 RES2   0.0000
    20 C7      13.8826   8.8438   7.0380   C.3       2 RES2   0.0000
    21 H6      14.0007   7.8963   7.2096   H         2 RES2   0.0000
    22 H7      13.2369   9.1804   7.6771   H         2 RES2   0.0000
    23 C8      17.7098   5.8501   5.6564   C.ar      2 RES2   0.0000
    24 H8      17.0818   5.3900   6.1671   H         2 RES2   0.0000
    25 C9      19.6372   5.8515   4.2690   C.ar      2 RES2   0.0000
    26 H9      20.3080   5.3776   3.8315   H         2 RES2   0.0000
    27 C10     13.3225   9.0161   5.6485   C.3       2 RES2   0.0000
    28 H10     13.9979   8.7219   4.9834   H         2 RES2   0.0000
    29 H11     12.5153   8.4473   5.5429   H         2 RES2   0.0000
    30 C11     18.6725   5.1678   4.9864   C.ar      2 RES2   0.0000
    31 H12     18.6852   4.2387   5.0102   H         2 RES2   0.0000
    32 C12     21.5974   7.2790   2.8618   C.3       2 RES2   0.0000
    33 H13     22.0523   6.6980   3.4757   H         2 RES2   0.0000
    34 H14     22.2207   7.9105   2.4964   H         2 RES2   0.0000
    35 H15     21.2165   6.7574   2.1508   H         2 RES2   0.0000
    36 C13     12.3733  10.6593   4.0943   C.3       2 RES2   0.0000
    37 H16     13.0429  10.5504   3.4146   H         2 RES2   0.0000
    38 H17     12.0227  11.5520   4.0576   H         2 RES2   0.0000
    39 H18     11.6636  10.0300   3.9477   H         2 RES2   0.0000
    40 Se1F    14.5934   8.9697   0.9467   Se        2 RES2   0.0000
    41 O1F     15.5490  11.7142   5.1107   O.3       2 RES2   0.0000
    42 O2F     13.6143  13.0380   6.3215   O.3       2 RES2   0.0000
    43 N1F     17.9123  11.8795   3.5565   N.2       2 RES2   0.0000
    44 N2F     16.1211   9.5064   3.3315   N.2       2 RES2   0.0000
    45 N3F     21.2100  10.5879   4.4713   N.4       2 RES2   1.0000
    46 H1F     21.7827  10.3220   3.8443   H         2 RES2   0.0000
    47 H2F     20.4765  10.0882   4.3956   H         2 RES2   0.0000
    48 C1F     15.5664  13.0422   5.0347   C.ar      2 RES2   0.0000
    49 C2F     17.5418  13.1052   3.4992   C.2       2 RES2   0.0000
    50 H3F     17.9823  13.6412   2.8794   H         2 RES2   0.0000
    51 C3F     14.5571  13.7917   5.6722   C.ar      2 RES2   0.0000
    52 C4F     16.5144  13.7468   4.2917   C.ar      2 RES2   0.0000
    53 C5F     15.5434   9.3201   2.4285   C.1       2 RES2   0.0000
    54 C6F     18.9611  11.4634   2.5973   C.3       2 RES2   0.0000
    55 H4F     19.0959  10.5062   2.6710   H         2 RES2   0.0000
    56 H5F     18.6587  11.6524   1.6955   H         2 RES2   0.0000
    57 C7F     20.2921  12.1694   2.8302   C.3       2 RES2   0.0000
    58 H6F     20.1741  13.1169   2.6585   H         2 RES2   0.0000
    59 H7F     20.9379  11.8328   2.1910   H         2 RES2   0.0000
    60 C8F     16.4650  15.1631   4.2117   C.ar      2 RES2   0.0000
    61 H8F     17.0930  15.6232   3.7010   H         2 RES2   0.0000
    62 C9F     14.5376  15.1617   5.5992   C.ar      2 RES2   0.0000
    63 H9F     13.8668  15.6356   6.0367   H         2 RES2   0.0000
    64 C10F    20.8523  11.9971   4.2196   C.3       2 RES2   0.0000
    65 H10F    20.1769  12.2913   4.8847   H         2 RES2   0.0000
    66 H11F    21.6595  12.5659   4.3252   H         2 RES2   0.0000
    67 C11F    15.5023  15.8454   4.8818   C.ar      2 RES2   0.0000
    68 H12F    15.4896  16.7745   4.8579   H         2 RES2   0.0000
    69 C12F    12.5774  13.7342   7.0064   C.3       2 RES2   0.0000
    70 H13F    12.1225  14.3152   6.3924   H         2 RES2   0.0000
    71 H14F    11.9541  13.1027   7.3717   H         2 RES2   0.0000
    72 H15F    12.9583  14.2558   7.7174   H         2 RES2   0.0000
    73 C13F    21.8015  10.3539   5.7738   C.3       2 RES2   0.0000
    74 H16F    21.1319  10.4628   6.4536   H         2 RES2   0.0000
    75 H17F    22.1521   9.4612   5.8105   H         2 RES2   0.0000
    76 H18F    22.5112  10.9832   5.9204   H         2 RES2   0.0000
@<TRIPOS>BOND
     1     2     4    1
     2     3    16    2
     3     4    11    1
     4     5    14    1
     5     6     2    1
     6     7     2    1
     7     8     9    1
     8    10     8    1
     9    11    14   ar
    10    12     6    2
    11    13    12    1
    12    14    25   ar
    13    15    11   ar
    14    16     7    2
    15    17     6    1
    16    18    17    1
    17    19    17    1
    18    20    17    1
    19    21    20    1
    20    22    20    1
    21    23    15   ar
    22    24    23    1
    23    25    26    1
    24    27     8    1
    25    28    27    1
    26    29    27    1
    27    30    23   ar
    28    31    30    1
    29    32     5    1
    30    33    32    1
    31    34    32    1
    32    35    32    1
    33    36     8    1
    34    37    36    1
    35    38    36    1
    36    39    36    1
    37    40    53    2
    38    41     2    1
    39    42    51    1
    40    43     2    1
    41    44     2    1
    42    45    46    1
    43    47    45    1
    44    48    41    1
    45    49    43    2
    46    50    49    1
    47    51    48   ar
    48    52    48   ar
    49    53    44    2
    50    54    43    1
    51    55    54    1
    52    56    54    1
    53    57    54    1
    54    58    57    1
    55    59    57    1
    56    60    52   ar
    57    61    60    1
    58    62    51   ar
    59    63    62    1
    60    64    45    1
    61    65    64    1
    62    66    64    1
    63    67    60   ar
    64    68    67    1
    65    69    42    1
    66    70    69    1
    67    71    69    1
    68    72    69    1
    69    73    45    1
    70    74    73    1
    71    75    73    1
    72    76    73    1
    73    12    15    1
    74    20    27    1
    75    25    30   ar
    76    49    52    1
    77    57    64    1
    78    62    67   ar
@<TRIPOS>SUBSTRUCTURE
     1 RES1        1 GROUP             0 ****  ****    0  
     2 RES2        2 GROUP             0 ****  ****    0  
@<TRIPOS>CRYSIN
   24.0615   14.0088   10.0527   90.0000  100.9960   90.0000    15     1
