@<TRIPOS>MOLECULE
YUZYAV01
    81    86     1     0     0
SMALL
NO_CHARGES
****
Generated from the CSD

@<TRIPOS>ATOM
     1 Fe1      2.3712   3.3706   4.6495   Fe        1 RES1   0.0000
     2 F1      -1.3043   0.6214   1.6643   F         1 RES1   0.0000
     3 F2      -0.1237   2.2015   0.8161   F         1 RES1   0.0000
     4 F3       0.7837   0.3036   1.2658   F         1 RES1   0.0000
     5 O1       1.1918   2.5344   3.1408   O.co2     1 RES1   0.0000
     6 O2      -0.2696   1.0879   4.0467   O.co2     1 RES1   0.0000
     7 N1       1.6814   5.3446   3.9288   N.2       1 RES1   0.0000
     8 N2       0.1153   6.6013   5.1118   N.pl3     1 RES1   0.0000
     9 N3      -0.2271   6.4249   2.9440   N.pl3     1 RES1   0.0000
    10 N4       3.4669   4.3577   3.0194   N.ar      1 RES1   0.0000
    11 N5       2.6621   6.3943   2.0256   N.ar      1 RES1   0.0000
    12 C1       0.5892   6.1050   3.9586   C.cat     1 RES1   0.0000
    13 C2       0.9088   6.7242   6.3233   C.3       1 RES1   0.0000
    14 H1       1.6323   6.0623   6.3094   H         1 RES1   0.0000
    15 H2       0.3389   6.5675   7.1045   H         1 RES1   0.0000
    16 H3       1.2919   7.6250   6.3736   H         1 RES1   0.0000
    17 C3      -1.0262   7.4868   4.8634   C.3       1 RES1   0.0000
    18 H4      -0.7646   8.4389   4.9248   H         1 RES1   0.0000
    19 H5      -1.7642   7.3102   5.5004   H         1 RES1   0.0000
    20 C4      -1.4198   7.1095   3.4425   C.3       1 RES1   0.0000
    21 H6      -2.2060   6.5078   3.4360   H         1 RES1   0.0000
    22 H7      -1.6224   7.9139   2.9022   H         1 RES1   0.0000
    23 C5      -0.2320   5.7464   1.6589   C.3       1 RES1   0.0000
    24 H8       0.1597   6.3326   0.9783   H         1 RES1   0.0000
    25 H9      -1.1545   5.5263   1.4097   H         1 RES1   0.0000
    26 H10      0.2945   4.9221   1.7222   H         1 RES1   0.0000
    27 C6       2.5963   5.3936   2.9190   C.ar      1 RES1   0.0000
    28 C7       3.7038   6.3529   1.1773   C.ar      1 RES1   0.0000
    29 C8       4.6660   5.3610   1.2507   C.ar      1 RES1   0.0000
    30 H11      5.4034   5.3615   0.6519   H         1 RES1   0.0000
    31 C9       4.5395   4.3686   2.2067   C.ar      1 RES1   0.0000
    32 C10      3.7819   7.4610   0.1702   C.3       1 RES1   0.0000
    33 H12      2.8797   7.7916  -0.0223   H         1 RES1   0.0000
    34 H13      4.1892   7.1236  -0.6547   H         1 RES1   0.0000
    35 H14      4.3281   8.1911   0.5300   H         1 RES1   0.0000
    36 C11      5.5630   3.3077   2.4261   C.3       1 RES1   0.0000
    37 H15      6.1815   3.5915   3.1319   H         1 RES1   0.0000
    38 H16      6.0609   3.1573   1.5966   H         1 RES1   0.0000
    39 H17      5.1189   2.4764   2.6958   H         1 RES1   0.0000
    40 C12      0.2835   1.6724   3.1384   C.2       1 RES1   0.0000
    41 C13     -0.1027   1.2031   1.7166   C.3       1 RES1   0.0000
    42 F1A      6.0467   6.1198   7.6347   F         1 RES1   0.0000
    43 F2A      4.8662   4.5397   8.4830   F         1 RES1   0.0000
    44 F3A      3.9588   6.4377   8.0333   F         1 RES1   0.0000
    45 O1A      3.5507   4.2069   6.1582   O.co2     1 RES1   0.0000
    46 O2A      5.0121   5.6533   5.2524   O.co2     1 RES1   0.0000
    47 N1A      3.0610   1.3967   5.3702   N.2       1 RES1   0.0000
    48 N2A      4.6271   0.1400   4.1873   N.pl3     1 RES1   0.0000
    49 N3A      4.9696   0.3164   6.3551   N.pl3     1 RES1   0.0000
    50 N4A      1.2756   2.3836   6.2796   N.ar      1 RES1   0.0000
    51 N5A      2.0804   0.3470   7.2734   N.ar      1 RES1   0.0000
    52 C1A      4.1532   0.6363   5.3404   C.cat     1 RES1   0.0000
    53 C2A      3.8336   0.0170   2.9757   C.3       1 RES1   0.0000
    54 H1A      3.1102   0.6790   2.9896   H         1 RES1   0.0000
    55 H2A      4.4035   0.1738   2.1946   H         1 RES1   0.0000
    56 H3A      3.4506  -0.8837   2.9255   H         1 RES1   0.0000
    57 C3A      5.7687  -0.7455   4.4356   C.3       1 RES1   0.0000
    58 H4A      5.5071  -1.6976   4.3743   H         1 RES1   0.0000
    59 H5A      6.5066  -0.5689   3.7987   H         1 RES1   0.0000
    60 C4A      6.1623  -0.3683   5.8565   C.3       1 RES1   0.0000
    61 H6A      6.9484   0.2335   5.8630   H         1 RES1   0.0000
    62 H7A      6.3649  -1.1726   6.3968   H         1 RES1   0.0000
    63 C5A      4.9744   0.9949   7.6401   C.3       1 RES1   0.0000
    64 H8A      4.5827   0.4086   8.3208   H         1 RES1   0.0000
    65 H9A      5.8969   1.2150   7.8893   H         1 RES1   0.0000
    66 H10A     4.4480   1.8191   7.5769   H         1 RES1   0.0000
    67 C6A      2.1461   1.3476   6.3801   C.ar      1 RES1   0.0000
    68 C7A      1.0387   0.3884   8.1218   C.ar      1 RES1   0.0000
    69 C8A      0.0765   1.3802   8.0483   C.ar      1 RES1   0.0000
    70 H11A    -0.6610   1.3798   8.6472   H         1 RES1   0.0000
    71 C9A      0.2030   2.3726   7.0924   C.ar      1 RES1   0.0000
    72 C10A     0.9605  -0.7198   9.1289   C.3       1 RES1   0.0000
    73 H12A     1.8628  -1.0504   9.3214   H         1 RES1   0.0000
    74 H13A     0.5533  -0.3824   9.9537   H         1 RES1   0.0000
    75 H14A     0.4143  -1.4498   8.7690   H         1 RES1   0.0000
    76 C11A    -0.8206   3.4336   6.8729   C.3       1 RES1   0.0000
    77 H15A    -1.4390   3.1498   6.1671   H         1 RES1   0.0000
    78 H16A    -1.3184   3.5840   7.7024   H         1 RES1   0.0000
    79 H17A    -0.3764   4.2649   6.6032   H         1 RES1   0.0000
    80 C12A     4.4589   5.0689   6.1606   C.2       1 RES1   0.0000
    81 C13A     4.8452   5.5382   7.5824   C.3       1 RES1   0.0000
@<TRIPOS>BOND
     1     1     5    1
     2     2    41    1
     3     3    41    1
     4     4    41    1
     5     5    40    1
     6     6    40    2
     7     7     1    1
     8     8    12    1
     9     9    12    1
    10    10     1    1
    11    11    27   ar
    12    12     7    2
    13    13     8    1
    14    14    13    1
    15    15    13    1
    16    16    13    1
    17    17     8    1
    18    18    17    1
    19    19    17    1
    20    20     9    1
    21    21    20    1
    22    22    20    1
    23    23     9    1
    24    24    23    1
    25    25    23    1
    26    26    23    1
    27    27     7    1
    28    28    11   ar
    29    29    28   ar
    30    30    29    1
    31    31    10   ar
    32    32    28    1
    33    33    32    1
    34    34    32    1
    35    35    32    1
    36    36    31    1
    37    37    36    1
    38    38    36    1
    39    39    36    1
    40    40    41    1
    41    42    81    1
    42    43    81    1
    43    44    81    1
    44    45     1    1
    45    46    80    2
    46    47     1    1
    47    48    52    1
    48    49    52    1
    49    50     1    1
    50    51    67   ar
    51    52    47    2
    52    53    48    1
    53    54    53    1
    54    55    53    1
    55    56    53    1
    56    57    48    1
    57    58    57    1
    58    59    57    1
    59    60    49    1
    60    61    60    1
    61    62    60    1
    62    63    49    1
    63    64    63    1
    64    65    63    1
    65    66    63    1
    66    67    47    1
    67    68    51   ar
    68    69    68   ar
    69    70    69    1
    70    71    50   ar
    71    72    68    1
    72    73    72    1
    73    74    72    1
    74    75    72    1
    75    76    71    1
    76    77    76    1
    77    78    76    1
    78    79    76    1
    79    80    45    1
    80    81    80    1
    81    10    27   ar
    82    17    20    1
    83    29    31   ar
    84    50    67   ar
    85    57    60    1
    86    69    71   ar
@<TRIPOS>SUBSTRUCTURE
     1 RES1        1 GROUP             0 ****  ****    0  
@<TRIPOS>CRYSIN
    8.8045    9.7891    9.9829  103.9350  102.8530  100.8420     2     1
