@<TRIPOS>MOLECULE
ZACWIN
    87    94     1     0     0
SMALL
NO_CHARGES
****
Generated from the CSD

@<TRIPOS>ATOM
     1 Fe1      9.3321  12.9419   9.3352   Fe        1 RES1   0.0000
     2 Si1     11.1867  10.7183  11.2739   Si        1 RES1   0.0000
     3 Si2     12.7309  12.8122   9.7868   Si        1 RES1   0.0000
     4 O1      12.4554  11.3396  10.4481   O.3       1 RES1   0.0000
     5 N1       6.8762  12.8557   7.6613   N.pl3     1 RES1   0.0000
     6 N2       8.4174  13.4370   6.2857   N.pl3     1 RES1   0.0000
     7 N3       6.4653  13.3987  10.1025   N.pl3     1 RES1   0.0000
     8 N4       7.5862  14.5637  11.5216   N.pl3     1 RES1   0.0000
     9 C1       8.2017  13.1233   7.6008   C.3       1 RES1   0.0000
    10 C2       6.2973  12.9783   6.4262   C.2       1 RES1   0.0000
    11 C3       7.2547  13.3354   5.5600   C.2       1 RES1   0.0000
    12 C4       9.6786  13.8256   5.7027   C.ar      1 RES1   0.0000
    13 C5      10.5609  12.8507   5.2651   C.ar      1 RES1   0.0000
    14 C6      11.7770  13.2603   4.7198   C.ar      1 RES1   0.0000
    15 C7      12.1019  14.5952   4.6037   C.ar      1 RES1   0.0000
    16 C8      11.1847  15.5434   5.0016   C.ar      1 RES1   0.0000
    17 C9       9.9552  15.1898   5.5756   C.ar      1 RES1   0.0000
    18 C10     10.2448  11.3823   5.3643   C.3       1 RES1   0.0000
    19 C11     13.4285  15.0048   4.0036   C.3       1 RES1   0.0000
    20 C12      8.9856  16.2338   6.0270   C.3       1 RES1   0.0000
    21 C13      7.7338  13.6938  10.4820   C.3       1 RES1   0.0000
    22 C14      5.5607  14.0678  10.8864   C.2       1 RES1   0.0000
    23 C15      6.2562  14.7982  11.7722   C.2       1 RES1   0.0000
    24 C16      8.6633  15.0990  12.3090   C.ar      1 RES1   0.0000
    25 C17      9.0268  14.4330  13.4707   C.ar      1 RES1   0.0000
    26 C18     10.1166  14.9344  14.1908   C.ar      1 RES1   0.0000
    27 C19     10.8087  16.0580  13.7890   C.ar      1 RES1   0.0000
    28 C20     10.3773  16.7253  12.6528   C.ar      1 RES1   0.0000
    29 C21      9.2927  16.2703  11.9014   C.ar      1 RES1   0.0000
    30 C22      8.2554  13.2267  13.9404   C.3       1 RES1   0.0000
    31 C23     12.0052  16.5559  14.5744   C.3       1 RES1   0.0000
    32 C24      8.7731  17.0736  10.7364   C.3       1 RES1   0.0000
    33 C25      9.6141  11.0455  10.3503   C.2       1 RES1   0.0000
    34 C26      9.5289  10.8776   8.9727   C.2       1 RES1   0.0000
    35 C27     11.1926  13.8227   9.8989   C.2       1 RES1   0.0000
    36 C28     10.6524  14.5102   8.8513   C.2       1 RES1   0.0000
    37 C29     11.1226  11.4261  12.9763   C.3       1 RES1   0.0000
    38 C30     11.5129   8.8968  11.3835   C.3       1 RES1   0.0000
    39 C31     14.0772  13.6627  10.7586   C.3       1 RES1   0.0000
    40 C32     13.2737  12.5671   8.0334   C.3       1 RES1   0.0000
    41 B1       6.1023  12.4232   8.9466   B         1 RES1   0.0000
    42 H1       6.4957  11.3746   9.2897   H         1 RES1   0.0000
    43 H2       4.8909  12.5693   8.7678   H         1 RES1   0.0000
    44 H3       5.3759  12.8531   6.2279   H         1 RES1   0.0000
    45 H4       7.1570  13.4669   4.6233   H         1 RES1   0.0000
    46 H5      12.4046  12.6067   4.4341   H         1 RES1   0.0000
    47 H6      11.3969  16.4613   4.8881   H         1 RES1   0.0000
    48 H7      10.9661  10.8774   5.0108   H         1 RES1   0.0000
    49 H8      10.1128  11.1502   6.2749   H         1 RES1   0.0000
    50 H9       9.4549  11.1942   4.8712   H         1 RES1   0.0000
    51 H10     13.4874  15.9531   3.9867   H         1 RES1   0.0000
    52 H11     14.1315  14.6528   4.5372   H         1 RES1   0.0000
    53 H12     13.5033  14.6660   3.1192   H         1 RES1   0.0000
    54 H13      8.2120  15.8123   6.3871   H         1 RES1   0.0000
    55 H14      9.3895  16.7737   6.6949   H         1 RES1   0.0000
    56 H15      8.7328  16.7781   5.2899   H         1 RES1   0.0000
    57 H16      4.6142  14.0192  10.8160   H         1 RES1   0.0000
    58 H17      5.8953  15.3744  12.4362   H         1 RES1   0.0000
    59 H18     10.3909  14.4878  14.9827   H         1 RES1   0.0000
    60 H19     10.8302  17.5152  12.3775   H         1 RES1   0.0000
    61 H20      8.6398  12.9015  14.7453   H         1 RES1   0.0000
    62 H21      7.3494  13.4691  14.0995   H         1 RES1   0.0000
    63 H22      8.2875  12.5495  13.2750   H         1 RES1   0.0000
    64 H23     12.3502  17.3369  14.1556   H         1 RES1   0.0000
    65 H24     11.7421  16.7649  15.4641   H         1 RES1   0.0000
    66 H25     12.6736  15.8827  14.5913   H         1 RES1   0.0000
    67 H26      8.0386  16.6263  10.3346   H         1 RES1   0.0000
    68 H27      8.4917  17.9288  11.0443   H         1 RES1   0.0000
    69 H28      9.4688  17.1785  10.0972   H         1 RES1   0.0000
    70 H29      8.8396  10.7454  10.8095   H         1 RES1   0.0000
    71 H30     10.2943  10.5936   8.4848   H         1 RES1   0.0000
    72 H31      8.7119  11.0490   8.5187   H         1 RES1   0.0000
    73 H32     11.1334  14.3052  10.7155   H         1 RES1   0.0000
    74 H33      9.8556  15.0136   8.9714   H         1 RES1   0.0000
    75 H34     11.0723  14.4812   7.9995   H         1 RES1   0.0000
    76 H35     10.6459  10.8378  13.5490   H         1 RES1   0.0000
    77 H36     12.0060  11.5462  13.3077   H         1 RES1   0.0000
    78 H37     10.6806  12.2657  12.9450   H         1 RES1   0.0000
    79 H38     10.8537   8.4837  11.9288   H         1 RES1   0.0000
    80 H39     12.3729   8.7543  11.7631   H         1 RES1   0.0000
    81 H40     11.4857   8.5211  10.5120   H         1 RES1   0.0000
    82 H41     14.5136  14.3052  10.2120   H         1 RES1   0.0000
    83 H42     13.6857  14.0962  11.5087   H         1 RES1   0.0000
    84 H43     14.7107  13.0203  11.0573   H         1 RES1   0.0000
    85 H44     13.7465  13.3371   7.7399   H         1 RES1   0.0000
    86 H45     13.8396  11.8058   7.9773   H         1 RES1   0.0000
    87 H46     12.5109  12.4351   7.4842   H         1 RES1   0.0000
@<TRIPOS>BOND
     1     1     9    1
     2     2     4    1
     3     3     4    1
     4     5     9    1
     5     6     9    1
     6     7    21    1
     7     8    21    1
     8    10     5    1
     9    11     6    1
    10    12     6    1
    11    13    12   ar
    12    14    13   ar
    13    15    14   ar
    14    16    15   ar
    15    17    12   ar
    16    18    13    1
    17    19    15    1
    18    20    17    1
    19    21     1    1
    20    22     7    1
    21    23     8    1
    22    24     8    1
    23    25    24   ar
    24    26    25   ar
    25    27    26   ar
    26    28    27   ar
    27    29    24   ar
    28    30    25    1
    29    31    27    1
    30    32    29    1
    31    33     1   un
    32    34     1   un
    33    35     1   un
    34    36     1   un
    35    37     2    1
    36    38     2    1
    37    39     3    1
    38    40     3    1
    39    41     5    1
    40    42    41    1
    41    43    41    1
    42    44    10    1
    43    45    11    1
    44    46    14    1
    45    47    16    1
    46    48    18    1
    47    49    18    1
    48    50    18    1
    49    51    19    1
    50    52    19    1
    51    53    19    1
    52    54    20    1
    53    55    20    1
    54    56    20    1
    55    57    22    1
    56    58    23    1
    57    59    26    1
    58    60    28    1
    59    61    30    1
    60    62    30    1
    61    63    30    1
    62    64    31    1
    63    65    31    1
    64    66    31    1
    65    67    32    1
    66    68    32    1
    67    69    32    1
    68    70    33    1
    69    71    34    1
    70    72    34    1
    71    73    35    1
    72    74    36    1
    73    75    36    1
    74    76    37    1
    75    77    37    1
    76    78    37    1
    77    79    38    1
    78    80    38    1
    79    81    38    1
    80    82    39    1
    81    83    39    1
    82    84    39    1
    83    85    40    1
    84    86    40    1
    85    87    40    1
    86     2    33    1
    87     3    35    1
    88     7    41    1
    89    10    11    2
    90    16    17   ar
    91    22    23    2
    92    28    29   ar
    93    33    34    2
    94    35    36    2
@<TRIPOS>SUBSTRUCTURE
     1 RES1        1 GROUP             0 ****  ****    0  
@<TRIPOS>CRYSIN
   24.4905   22.0012   17.3472   90.0000  131.2343   90.0000    15     1
