@<TRIPOS>MOLECULE
ZADMUQ
    86    86     4     0     0
SMALL
USER_CHARGES
****
Generated from the CSD

@<TRIPOS>ATOM
     1 Fe1     11.8053   7.2668   1.0349   Fe        1 RES1   2.0000
     2 P1      13.5511   8.1191   2.0568   P.3       1 RES1   0.0000
     3 P2      10.2839   8.3378   2.3881   P.3       1 RES1   0.0000
     4 P3      11.8131   5.3948   2.1834   P.3       1 RES1   0.0000
     5 P4      12.9997   6.3807  -0.7283   P.3       1 RES1   0.0000
     6 N1      11.7133   9.1291  -0.0199   N.3       1 RES1   0.0000
     7 H1      11.7926   8.9172  -0.9020   H         1 RES1   0.0000
     8 N2      10.1594   6.4256  -0.0398   N.3       1 RES1   0.0000
     9 H2       9.4592   6.9895   0.0996   H         1 RES1   0.0000
    10 C1      13.8253   8.0137   3.8651   C.3       1 RES1   0.0000
    11 H3      12.9830   7.9015   4.3107   H         1 RES1   0.0000
    12 H4      14.2438   8.8218   4.1712   H         1 RES1   0.0000
    13 H5      14.3923   7.2645   4.0589   H         1 RES1   0.0000
    14 C2      15.2358   7.7247   1.4725   C.3       1 RES1   0.0000
    15 H6      15.3869   6.7791   1.5450   H         1 RES1   0.0000
    16 H7      15.8784   8.1933   2.0086   H         1 RES1   0.0000
    17 H8      15.3267   7.9927   0.5542   H         1 RES1   0.0000
    18 C3      13.4170   9.8951   1.7080   C.3       1 RES1   0.0000
    19 H9      12.8102  10.3146   2.3383   H         1 RES1   0.0000
    20 H10     14.2861  10.3174   1.7895   H         1 RES1   0.0000
    21 C4      12.8883  10.0508   0.2898   C.3       1 RES1   0.0000
    22 H11     13.6064   9.8656  -0.3351   H         1 RES1   0.0000
    23 H12     12.6093  10.9697   0.1576   H         1 RES1   0.0000
    24 C5      10.4192   9.8025   0.1123   C.3       1 RES1   0.0000
    25 H13      9.7395   9.2848  -0.3459   H         1 RES1   0.0000
    26 H14     10.4666  10.6751  -0.3097   H         1 RES1   0.0000
    27 C6      10.0198   9.9722   1.5812   C.3       1 RES1   0.0000
    28 H15      9.0906  10.2388   1.6518   H         1 RES1   0.0000
    29 H16     10.5690  10.6513   2.0050   H         1 RES1   0.0000
    30 C7       8.5901   7.7191   2.4578   C.3       1 RES1   0.0000
    31 H17      8.0512   8.3196   2.9758   H         1 RES1   0.0000
    32 H18      8.5837   6.8493   2.8653   H         1 RES1   0.0000
    33 H19      8.2355   7.6574   1.5667   H         1 RES1   0.0000
    34 C8      10.5075   8.8709   4.1187   C.3       1 RES1   0.0000
    35 H20     10.5574   8.1007   4.6874   H         1 RES1   0.0000
    36 H21      9.7638   9.4181   4.3849   H         1 RES1   0.0000
    37 H22     11.3190   9.3774   4.1947   H         1 RES1   0.0000
    38 C9      13.3363   4.4474   2.5610   C.3       1 RES1   0.0000
    39 H23     13.0995   3.6042   2.9523   H         1 RES1   0.0000
    40 H24     13.8778   4.9454   3.1768   H         1 RES1   0.0000
    41 H25     13.8291   4.2987   1.7514   H         1 RES1   0.0000
    42 C10     11.0310   5.3130   3.8434   C.3       1 RES1   0.0000
    43 H26     11.5776   5.7844   4.4773   H         1 RES1   0.0000
    44 H27     10.9478   4.3955   4.1114   H         1 RES1   0.0000
    45 H28     10.1619   5.7171   3.8071   H         1 RES1   0.0000
    46 C11     10.7674   4.3183   1.1791   C.3       1 RES1   0.0000
    47 H29     11.3165   3.8539   0.5271   H         1 RES1   0.0000
    48 H30     10.3501   3.6533   1.7478   H         1 RES1   0.0000
    49 C12      9.7152   5.0970   0.4745   C.3       1 RES1   0.0000
    50 H31      8.9728   5.2344   1.0831   H         1 RES1   0.0000
    51 H32      9.3888   4.5708  -0.2717   H         1 RES1   0.0000
    52 C13     10.3757   6.4171  -1.4961   C.3       1 RES1   0.0000
    53 H33     10.3910   7.3305  -1.8239   H         1 RES1   0.0000
    54 H34      9.6410   5.9556  -1.9289   H         1 RES1   0.0000
    55 C14     11.6774   5.7353  -1.8510   C.3       1 RES1   0.0000
    56 H35     11.9066   5.9205  -2.7748   H         1 RES1   0.0000
    57 H36     11.5891   4.7757  -1.7442   H         1 RES1   0.0000
    58 C15     13.9315   7.4371  -1.8782   C.3       1 RES1   0.0000
    59 H37     14.7162   7.7752  -1.4381   H         1 RES1   0.0000
    60 H38     13.3798   8.1722  -2.1553   H         1 RES1   0.0000
    61 H39     14.1914   6.9236  -2.6462   H         1 RES1   0.0000
    62 C16     14.1619   4.9496  -0.6901   C.3       1 RES1   0.0000
    63 H40     13.7702   4.2327  -0.1866   H         1 RES1   0.0000
    64 H41     14.9862   5.2176  -0.2789   H         1 RES1   0.0000
    65 H42     14.3334   4.6536  -1.5866   H         1 RES1   0.0000
    66 P5      14.0378   3.7066  -5.1349   P.3       2 RES2  -1.0000
    67 F1      14.0774   5.1404  -4.6095   F         2 RES2   0.0000
    68 F2      14.3846   3.0753  -3.7347   F         2 RES2   0.0000
    69 F3      15.5162   3.7361  -5.5332   F         2 RES2   0.0000
    70 F4      12.5709   3.6365  -4.7725   F         2 RES2   0.0000
    71 F5      13.6896   4.3127  -6.5348   F         2 RES2   0.0000
    72 F6      14.0442   2.2686  -5.6691   F         2 RES2   0.0000
    73 P6      12.5235   0.1122   1.2360   P.3       3 RES3  -1.0000
    74 F7      13.4029   0.8235   2.3419   F         3 RES3   0.0000
    75 F8      11.3037   0.9793   1.6591   F         3 RES3   0.0000
    76 F9      13.0176   1.2065   0.1829   F         3 RES3   0.0000
    77 F10     12.1382  -1.0045   2.2676   F         3 RES3   0.0000
    78 F11     13.8099  -0.7730   0.8476   F         3 RES3   0.0000
    79 F12     11.7146  -0.6412   0.1250   F         3 RES3   0.0000
    80 O1      16.4314   5.2485   4.2871   O.2       4 RES4   0.0000
    81 O2      16.7053   4.2692   2.4053   O.2       4 RES4   0.0000
    82 N3      17.0189   5.0984   3.2439   N.pl3     4 RES4   0.0000
    83 C17     18.1530   5.9612   2.9722   C.3       4 RES4   0.0000
    84 H43     18.5805   6.1955   3.7999   H         4 RES4   0.0000
    85 H44     17.8496   6.7581   2.5321   H         4 RES4   0.0000
    86 H45     18.7776   5.5010   2.4089   H         4 RES4   0.0000
@<TRIPOS>BOND
     1     1     2    1
     2     2    10    1
     3     3     1    1
     4     4     1    1
     5     5     1    1
     6     6     1    1
     7     7     6    1
     8     8     1    1
     9     9     8    1
    10    10    11    1
    11    12    10    1
    12    13    10    1
    13    14     2    1
    14    15    14    1
    15    16    14    1
    16    17    14    1
    17    18     2    1
    18    19    18    1
    19    20    18    1
    20    21     6    1
    21    22    21    1
    22    23    21    1
    23    24     6    1
    24    25    24    1
    25    26    24    1
    26    27     3    1
    27    28    27    1
    28    29    27    1
    29    30     3    1
    30    31    30    1
    31    32    30    1
    32    33    30    1
    33    34     3    1
    34    35    34    1
    35    36    34    1
    36    37    34    1
    37    38     4    1
    38    39    38    1
    39    40    38    1
    40    41    38    1
    41    42     4    1
    42    43    42    1
    43    44    42    1
    44    45    42    1
    45    46     4    1
    46    47    46    1
    47    48    46    1
    48    49     8    1
    49    50    49    1
    50    51    49    1
    51    52     8    1
    52    53    52    1
    53    54    52    1
    54    55     5    1
    55    56    55    1
    56    57    55    1
    57    58     5    1
    58    59    58    1
    59    60    58    1
    60    61    58    1
    61    62     5    1
    62    63    62    1
    63    64    62    1
    64    65    62    1
    65    18    21    1
    66    24    27    1
    67    46    49    1
    68    52    55    1
    69    66    67    1
    70    68    66    1
    71    69    66    1
    72    70    66    1
    73    71    66    1
    74    72    66    1
    75    73    74    1
    76    75    73    1
    77    76    73    1
    78    77    73    1
    79    78    73    1
    80    79    73    1
    81    80    82    2
    82    81    82    2
    83    82    83    1
    84    83    84    1
    85    85    83    1
    86    86    83    1
@<TRIPOS>SUBSTRUCTURE
     1 RES1        1 GROUP             0 ****  ****    0  
     2 RES2       66 GROUP             0 ****  ****    0  
     3 RES3       73 GROUP             0 ****  ****    0  
     4 RES4       80 GROUP             0 ****  ****    0  
@<TRIPOS>CRYSIN
   12.8000   14.0296   18.1120   90.0000   90.0000   90.0000    19     1
