@<TRIPOS>MOLECULE
ZADMOK
   131   143     2     0     0
SMALL
USER_CHARGES
****
Generated from the CSD

@<TRIPOS>ATOM
     1 Fe1     10.4966   4.8240  18.1480   Fe        1 RES1   2.0000
     2 P1       8.2503   4.5315  18.6024   P.3       1 RES1   0.0000
     3 P2      10.9491   5.1280  20.4167   P.3       1 RES1   0.0000
     4 N1      10.4966   2.8231  18.1480   N.ar      1 RES1   0.0000
     5 N2      10.4966   6.8249  18.1480   N.ar      1 RES1   0.0000
     6 C1       9.5029   2.1227  18.7510   C.ar      1 RES1   0.0000
     7 C2       9.4835   0.7398  18.7529   C.ar      1 RES1   0.0000
     8 H1       8.7842   0.2830  19.1667   H         1 RES1   0.0000
     9 C3      10.4966   0.0430  18.1480   C.ar      1 RES1   0.0000
    10 H2      10.4966  -0.8867  18.1480   H         1 RES1   0.0000
    11 C4       8.4417   2.9144  19.4474   C.3       1 RES1   0.0000
    12 H3       8.6888   3.0560  20.3742   H         1 RES1   0.0000
    13 H4       7.6018   2.4308  19.4256   H         1 RES1   0.0000
    14 C5       7.3352   5.6301  19.7392   C.ar      1 RES1   0.0000
    15 C6       6.5195   5.0819  20.7250   C.ar      1 RES1   0.0000
    16 H5       6.5203   4.1648  20.8799   H         1 RES1   0.0000
    17 C7       5.7073   5.9220  21.4751   C.ar      1 RES1   0.0000
    18 H6       5.1768   5.5656  22.1502   H         1 RES1   0.0000
    19 C8       5.6769   7.2727  21.2307   C.ar      1 RES1   0.0000
    20 H7       5.1078   7.8244  21.7171   H         1 RES1   0.0000
    21 C9       6.4998   7.8065  20.2580   C.ar      1 RES1   0.0000
    22 H8       6.4948   8.7236  20.0959   H         1 RES1   0.0000
    23 C10      7.3202   6.9914  19.5321   C.ar      1 RES1   0.0000
    24 H9       7.8793   7.3622  18.8884   H         1 RES1   0.0000
    25 C11      6.8573   4.1719  17.4380   C.ar      1 RES1   0.0000
    26 C12      6.6723   2.9091  16.9285   C.ar      1 RES1   0.0000
    27 H10      7.2843   2.2391  17.1317   H         1 RES1   0.0000
    28 C13      5.5954   2.6225  16.1203   C.ar      1 RES1   0.0000
    29 H11      5.4948   1.7680  15.7694   H         1 RES1   0.0000
    30 C14      4.6695   3.5951  15.8299   C.ar      1 RES1   0.0000
    31 H12      3.9355   3.3963  15.2976   H         1 RES1   0.0000
    32 C15      4.8342   4.8526  16.3308   C.ar      1 RES1   0.0000
    33 H13      4.1989   5.5065  16.1445   H         1 RES1   0.0000
    34 C16      5.9324   5.1697  17.1099   C.ar      1 RES1   0.0000
    35 H14      6.0544   6.0403  17.4148   H         1 RES1   0.0000
    36 C17     11.1010   7.5253  19.1546   C.ar      1 RES1   0.0000
    37 C18     11.1022   8.9010  19.1715   C.ar      1 RES1   0.0000
    38 H15     11.5098   9.3560  19.8733   H         1 RES1   0.0000
    39 C19     10.4966   9.6050  18.1480   C.ar      1 RES1   0.0000
    40 H16     10.4966  10.5346  18.1480   H         1 RES1   0.0000
    41 C20     11.8010   6.7227  20.1980   C.3       1 RES1   0.0000
    42 H17     11.8049   7.2100  21.0372   H         1 RES1   0.0000
    43 H18     12.7212   6.5687  19.9313   H         1 RES1   0.0000
    44 C21      9.7706   5.4868  21.7924   C.ar      1 RES1   0.0000
    45 C22      9.3071   4.4281  22.6006   C.ar      1 RES1   0.0000
    46 H19      9.5589   3.5521  22.4140   H         1 RES1   0.0000
    47 C23      8.4692   4.7022  23.6771   C.ar      1 RES1   0.0000
    48 H20      8.1425   4.0000  24.1925   H         1 RES1   0.0000
    49 C24      8.1227   5.9686  23.9892   C.ar      1 RES1   0.0000
    50 H21      7.5714   6.1316  24.7224   H         1 RES1   0.0000
    51 C25      8.5714   7.0076  23.2440   C.ar      1 RES1   0.0000
    52 H22      8.3280   7.8763  23.4690   H         1 RES1   0.0000
    53 C26      9.4064   6.7854  22.1285   C.ar      1 RES1   0.0000
    54 H23      9.7116   7.5038  21.6203   H         1 RES1   0.0000
    55 C27     12.1041   4.0895  21.3626   C.ar      1 RES1   0.0000
    56 C28     11.8656   2.7192  21.4872   C.ar      1 RES1   0.0000
    57 H24     11.2137   2.3090  20.9670   H         1 RES1   0.0000
    58 C29     12.6053   1.9758  22.3850   C.ar      1 RES1   0.0000
    59 H25     12.4130   1.0730  22.5011   H         1 RES1   0.0000
    60 C30     13.6105   2.5436  23.1036   C.ar      1 RES1   0.0000
    61 H26     14.1189   2.0242  23.6843   H         1 RES1   0.0000
    62 C31     13.8718   3.8746  22.9729   C.ar      1 RES1   0.0000
    63 H27     14.5665   4.2579  23.4569   H         1 RES1   0.0000
    64 C32     13.1160   4.6592  22.1219   C.ar      1 RES1   0.0000
    65 H28     13.2871   5.5709  22.0583   H         1 RES1   0.0000
    66 P1A     12.7428   4.5315  17.6936   P.3       1 RES1   0.0000
    67 C1A     11.4903   2.1227  17.5450   C.ar      1 RES1   0.0000
    68 C2A     11.5096   0.7398  17.5431   C.ar      1 RES1   0.0000
    69 H1A     12.2089   0.2830  17.1293   H         1 RES1   0.0000
    70 C4A     12.5515   2.9144  16.8486   C.3       1 RES1   0.0000
    71 H3A     12.3043   3.0560  15.9218   H         1 RES1   0.0000
    72 H4A     13.3913   2.4308  16.8704   H         1 RES1   0.0000
    73 C5A     13.6580   5.6301  16.5568   C.ar      1 RES1   0.0000
    74 C6A     14.4736   5.0819  15.5710   C.ar      1 RES1   0.0000
    75 H5A     14.4728   4.1648  15.4161   H         1 RES1   0.0000
    76 C7A     15.2859   5.9220  14.8209   C.ar      1 RES1   0.0000
    77 H6A     15.8164   5.5656  14.1458   H         1 RES1   0.0000
    78 C8A     15.3163   7.2727  15.0653   C.ar      1 RES1   0.0000
    79 H7A     15.8853   7.8244  14.5789   H         1 RES1   0.0000
    80 C9A     14.4933   7.8065  16.0380   C.ar      1 RES1   0.0000
    81 H8A     14.4984   8.7236  16.2001   H         1 RES1   0.0000
    82 C10A    13.6730   6.9914  16.7639   C.ar      1 RES1   0.0000
    83 H9A     13.1138   7.3622  17.4076   H         1 RES1   0.0000
    84 C11A    14.1358   4.1719  18.8579   C.ar      1 RES1   0.0000
    85 C12A    14.3208   2.9091  19.3675   C.ar      1 RES1   0.0000
    86 H10A    13.7088   2.2391  19.1643   H         1 RES1   0.0000
    87 C13A    15.3977   2.6225  20.1757   C.ar      1 RES1   0.0000
    88 H11A    15.4983   1.7680  20.5266   H         1 RES1   0.0000
    89 C14A    16.3237   3.5951  20.4661   C.ar      1 RES1   0.0000
    90 H12A    17.0577   3.3963  20.9984   H         1 RES1   0.0000
    91 C15A    16.1589   4.8526  19.9652   C.ar      1 RES1   0.0000
    92 H13A    16.7942   5.5065  20.1515   H         1 RES1   0.0000
    93 C16A    15.0608   5.1697  19.1861   C.ar      1 RES1   0.0000
    94 H14A    14.9388   6.0403  18.8812   H         1 RES1   0.0000
    95 P2A     10.0440   5.1280  15.8793   P.3       1 RES1   0.0000
    96 C17A     9.8922   7.5253  17.1414   C.ar      1 RES1   0.0000
    97 C18A     9.8910   8.9010  17.1245   C.ar      1 RES1   0.0000
    98 H15A     9.4833   9.3560  16.4227   H         1 RES1   0.0000
    99 C20A     9.1922   6.7227  16.0980   C.3       1 RES1   0.0000
   100 H17A     9.1882   7.2100  15.2588   H         1 RES1   0.0000
   101 H18A     8.2720   6.5687  16.3647   H         1 RES1   0.0000
   102 C21A    11.2225   5.4868  14.5036   C.ar      1 RES1   0.0000
   103 C22A    11.6860   4.4281  13.6954   C.ar      1 RES1   0.0000
   104 H19A    11.4342   3.5521  13.8820   H         1 RES1   0.0000
   105 C23A    12.5239   4.7022  12.6189   C.ar      1 RES1   0.0000
   106 H20A    12.8507   4.0000  12.1035   H         1 RES1   0.0000
   107 C24A    12.8704   5.9686  12.3068   C.ar      1 RES1   0.0000
   108 H21A    13.4217   6.1316  11.5736   H         1 RES1   0.0000
   109 C25A    12.4217   7.0076  13.0520   C.ar      1 RES1   0.0000
   110 H22A    12.6651   7.8763  12.8270   H         1 RES1   0.0000
   111 C26A    11.5867   6.7854  14.1675   C.ar      1 RES1   0.0000
   112 H23A    11.2816   7.5038  14.6757   H         1 RES1   0.0000
   113 C27A     8.8890   4.0895  14.9334   C.ar      1 RES1   0.0000
   114 C28A     9.1276   2.7192  14.8088   C.ar      1 RES1   0.0000
   115 H24A     9.7794   2.3090  15.3290   H         1 RES1   0.0000
   116 C29A     8.3878   1.9758  13.9110   C.ar      1 RES1   0.0000
   117 H25A     8.5801   1.0730  13.7949   H         1 RES1   0.0000
   118 C30A     7.3826   2.5436  13.1924   C.ar      1 RES1   0.0000
   119 H26A     6.8742   2.0242  12.6116   H         1 RES1   0.0000
   120 C31A     7.1213   3.8746  13.3231   C.ar      1 RES1   0.0000
   121 H27A     6.4266   4.2579  12.8391   H         1 RES1   0.0000
   122 C32A     7.8772   4.6592  14.1741   C.ar      1 RES1   0.0000
   123 H28A     7.7060   5.5709  14.2377   H         1 RES1   0.0000
   124 S1       6.6578   0.6870  22.3482   S.o2      2 RES2   0.0000
   125 F1       7.4280  -0.4514  20.9186   F         2 RES2   0.0000
   126 F2       8.3080  -1.0927  23.1714   F         2 RES2   0.0000
   127 F3       9.1899   0.5804  22.2277   F         2 RES2   0.0000
   128 O1       5.5938  -0.1415  22.7649   O.2       2 RES2   0.0000
   129 O2       6.5344   1.8307  21.8115   O.2       2 RES2   0.0000
   130 O3       7.4506   1.1052  24.0594   O.3       2 RES2  -1.0000
   131 C33      8.1288  -0.1451  22.4842   C.3       2 RES2   0.0000
@<TRIPOS>BOND
     1     1     2    1
     2     2    11    1
     3     3     1    1
     4     4     1    1
     5     5     1    1
     6     6     4   ar
     7     7     6   ar
     8     8     7    1
     9     9     7   ar
    10    10     9    1
    11    11     6    1
    12    12    11    1
    13    13    11    1
    14    14     2    1
    15    15    14   ar
    16    16    15    1
    17    17    15   ar
    18    18    17    1
    19    19    17   ar
    20    20    19    1
    21    21    19   ar
    22    22    21    1
    23    23    14   ar
    24    24    23    1
    25    25     2    1
    26    26    25   ar
    27    27    26    1
    28    28    26   ar
    29    29    28    1
    30    30    28   ar
    31    31    30    1
    32    32    30   ar
    33    33    32    1
    34    34    25   ar
    35    35    34    1
    36    36     5   ar
    37    37    36   ar
    38    38    37    1
    39    39    37   ar
    40    40    39    1
    41    41     3    1
    42    42    41    1
    43    43    41    1
    44    44     3    1
    45    45    44   ar
    46    46    45    1
    47    47    45   ar
    48    48    47    1
    49    49    47   ar
    50    50    49    1
    51    51    49   ar
    52    52    51    1
    53    53    44   ar
    54    54    53    1
    55    55     3    1
    56    56    55   ar
    57    57    56    1
    58    58    56   ar
    59    59    58    1
    60    60    58   ar
    61    61    60    1
    62    62    60   ar
    63    63    62    1
    64    64    55   ar
    65    65    64    1
    66    66     1    1
    67    67     4   ar
    68    68     9   ar
    69    69    68    1
    70    70    66    1
    71    71    70    1
    72    72    70    1
    73    73    66    1
    74    74    73   ar
    75    75    74    1
    76    76    74   ar
    77    77    76    1
    78    78    76   ar
    79    79    78    1
    80    80    78   ar
    81    81    80    1
    82    82    73   ar
    83    83    82    1
    84    84    66    1
    85    85    84   ar
    86    86    85    1
    87    87    85   ar
    88    88    87    1
    89    89    87   ar
    90    90    89    1
    91    91    89   ar
    92    92    91    1
    93    93    84   ar
    94    94    93    1
    95    95     1    1
    96    96     5   ar
    97    97    39   ar
    98    98    97    1
    99    99    95    1
   100   100    99    1
   101   101    99    1
   102   102    95    1
   103   103   102   ar
   104   104   103    1
   105   105   103   ar
   106   106   105    1
   107   107   105   ar
   108   108   107    1
   109   109   107   ar
   110   110   109    1
   111   111   102   ar
   112   112   111    1
   113   113    95    1
   114   114   113   ar
   115   115   114    1
   116   116   114   ar
   117   117   116    1
   118   118   116   ar
   119   119   118    1
   120   120   118   ar
   121   121   120    1
   122   122   113   ar
   123   123   122    1
   124    21    23   ar
   125    32    34   ar
   126    36    41    1
   127    51    53   ar
   128    62    64   ar
   129    67    68   ar
   130    67    70    1
   131    80    82   ar
   132    91    93   ar
   133    96    97   ar
   134    96    99    1
   135   109   111   ar
   136   120   122   ar
   137   124   128    2
   138   125   131    1
   139   126   131    1
   140   127   131    1
   141   129   124    2
   142   130   124    1
   143   131   124    1
@<TRIPOS>SUBSTRUCTURE
     1 RES1        1 GROUP             0 ****  ****    0  
     2 RES2      124 GROUP             0 ****  ****    0  
@<TRIPOS>CRYSIN
   13.5840   17.9130   24.5450   90.0000   99.6550   90.0000    15     1
