@<TRIPOS>MOLECULE
ZALDIZ
    99   104     3     0     0
SMALL
USER_CHARGES
****
Generated from the CSD

@<TRIPOS>ATOM
     1 Fe1     15.8813   0.4094   8.0978   Fe        1 RES1   1.0000
     2 O1      15.1004   1.1061   6.0917   O.3       1 RES1   0.0000
     3 O2      14.1253   1.1507   8.5330   O.3       1 RES1   0.0000
     4 N1      17.8411  -0.0892   7.2031   N.3       1 RES1   0.0000
     5 N2      15.6142  -1.7305   7.2926   N.ar      1 RES1   0.0000
     6 N3      16.8240  -0.4371   9.8629   N.ar      1 RES1   0.0000
     7 N4      17.2055   2.2835   8.3478   N.ar      1 RES1   0.0000
     8 C1      13.8073   1.6145   6.2291   C.ar      1 RES1   0.0000
     9 C2      13.3413   1.6413   7.5507   C.ar      1 RES1   0.0000
    10 C3      12.0572   2.1676   7.7671   C.ar      1 RES1   0.0000
    11 C4      11.3346   2.6403   6.6412   C.ar      1 RES1   0.0000
    12 C5      11.8115   2.5779   5.3550   C.ar      1 RES1   0.0000
    13 C6      13.0969   2.0605   5.1573   C.ar      1 RES1   0.0000
    14 C7      17.7141  -1.1685   6.1979   C.3       1 RES1   0.0000
    15 C8      16.6313  -2.1676   6.5205   C.ar      1 RES1   0.0000
    16 C9      16.6367  -3.4342   5.9419   C.ar      1 RES1   0.0000
    17 C10     15.5619  -4.2638   6.1209   C.ar      1 RES1   0.0000
    18 C11     14.5054  -3.8356   6.9013   C.ar      1 RES1   0.0000
    19 C12     14.5728  -2.5690   7.5090   C.ar      1 RES1   0.0000
    20 C13     13.4650  -2.1140   8.3873   C.3       1 RES1   0.0000
    21 C14     18.7410  -0.4549   8.3165   C.3       1 RES1   0.0000
    22 C15     18.0884  -0.8563   9.6256   C.ar      1 RES1   0.0000
    23 C16     18.8712  -1.4986  10.5892   C.ar      1 RES1   0.0000
    24 C17     18.2740  -1.7840  11.8005   C.ar      1 RES1   0.0000
    25 C18     16.9854  -1.3648  12.0752   C.ar      1 RES1   0.0000
    26 C19     16.2821  -0.6690  11.0804   C.ar      1 RES1   0.0000
    27 C20     14.8881  -0.2230  11.3697   C.3       1 RES1   0.0000
    28 C21     18.3269   1.1239   6.5454   C.3       1 RES1   0.0000
    29 C22     18.2733   2.3192   7.4445   C.ar      1 RES1   0.0000
    30 C23     19.1604   3.3539   7.4279   C.ar      1 RES1   0.0000
    31 C24     19.0590   4.3886   8.3353   C.ar      1 RES1   0.0000
    32 C25     18.0323   4.3351   9.2406   C.ar      1 RES1   0.0000
    33 C26     17.1225   3.3093   9.2115   C.ar      1 RES1   0.0000
    34 C27     15.9719   3.2469  10.1772   C.3       1 RES1   0.0000
    35 C28     11.0174   3.1398   4.1687   C.3       1 RES1   0.0000
    36 C29      9.5986   3.5591   4.5121   C.3       1 RES1   0.0000
    37 C30     11.7641   4.3262   3.5693   C.3       1 RES1   0.0000
    38 C31     10.8809   2.0338   3.0948   C.3       1 RES1   0.0000
    39 C32     11.4478   2.2389   9.1740   C.3       1 RES1   0.0000
    40 C33     11.3717   0.8385   9.7713   C.3       1 RES1   0.0000
    41 C34     10.0489   2.8366   9.1844   C.3       1 RES1   0.0000
    42 C35     12.3106   3.1666  10.0918   C.3       1 RES1   0.0000
    43 H1      17.5165  -0.7698   5.3571   H         1 RES1   0.0000
    44 H2      18.5430  -1.6261   6.1438   H         1 RES1   0.0000
    45 H3      17.3819  -3.7152   5.4278   H         1 RES1   0.0000
    46 H4      15.5458  -5.1228   5.7150   H         1 RES1   0.0000
    47 H5      13.7415  -4.3851   7.0241   H         1 RES1   0.0000
    48 H6      13.8055  -1.9276   9.2531   H         1 RES1   0.0000
    49 H7      13.0749  -1.3318   8.0231   H         1 RES1   0.0000
    50 H8      12.8085  -2.8000   8.4477   H         1 RES1   0.0000
    51 H9      19.2693  -1.1917   8.0252   H         1 RES1   0.0000
    52 H10     19.3015   0.2872   8.4893   H         1 RES1   0.0000
    53 H11     19.7750  -1.7367  10.4165   H         1 RES1   0.0000
    54 H12     18.7547  -2.2728  12.4582   H         1 RES1   0.0000
    55 H13     16.5845  -1.5503  12.9181   H         1 RES1   0.0000
    56 H14     14.8324   0.7207  11.2740   H         1 RES1   0.0000
    57 H15     14.2902  -0.6378  10.7599   H         1 RES1   0.0000
    58 H16     14.6560  -0.4647  12.2563   H         1 RES1   0.0000
    59 H17     19.2286   0.9830   6.2749   H         1 RES1   0.0000
    60 H18     17.7910   1.2898   5.7795   H         1 RES1   0.0000
    61 H19     19.8575   3.3664   6.7827   H         1 RES1   0.0000
    62 H20     19.6781   5.1049   8.3353   H         1 RES1   0.0000
    63 H21     17.9497   5.0139   9.8962   H         1 RES1   0.0000
    64 H22     15.9720   4.0220  10.7224   H         1 RES1   0.0000
    65 H23     15.1549   3.1978   9.6943   H         1 RES1   0.0000
    66 H24     16.0583   2.4735  10.7245   H         1 RES1   0.0000
    67 H25     10.4773   3.0185   6.7848   H         1 RES1   0.0000
    68 H26     13.4703   2.0231   4.2831   H         1 RES1   0.0000
    69 H27      9.6226   4.2388   5.1739   H         1 RES1   0.0000
    70 H28      9.1702   3.8927   3.7316   H         1 RES1   0.0000
    71 H29      9.1160   2.8116   4.8430   H         1 RES1   0.0000
    72 H30     12.6179   4.0390   3.2634   H         1 RES1   0.0000
    73 H31     11.2678   4.6759   2.8409   H         1 RES1   0.0000
    74 H32     11.8744   4.9943   4.2332   H         1 RES1   0.0000
    75 H33     10.3931   1.3005   3.4527   H         1 RES1   0.0000
    76 H34     10.4227   2.3790   2.3393   H         1 RES1   0.0000
    77 H35     11.7452   1.7376   2.8325   H         1 RES1   0.0000
    78 H36     10.9861   0.8795  10.6392   H         1 RES1   0.0000
    79 H37     10.8333   0.2845   9.2136   H         1 RES1   0.0000
    80 H38     12.2454   0.4692   9.8296   H         1 RES1   0.0000
    81 H39     10.0762   3.7170   8.8223   H         1 RES1   0.0000
    82 H40      9.4700   2.2996   8.6620   H         1 RES1   0.0000
    83 H41      9.7261   2.8767  10.0773   H         1 RES1   0.0000
    84 H42     13.1949   2.8232  10.1418   H         1 RES1   0.0000
    85 H43     12.3296   4.0417   9.7318   H         1 RES1   0.0000
    86 H44     11.9312   3.1880  10.9618   H         1 RES1   0.0000
    87 Cl1     18.4973   2.2577   2.9761   Cl        2 RES2   0.0000
    88 O3      19.4004   2.7206   3.9127   O.2       2 RES2   0.0000
    89 O4      18.8837   2.6403   1.6400   O.3       2 RES2  -1.0000
    90 O5      17.1876   2.7028   3.2654   O.2       2 RES2   0.0000
    91 O6      18.4472   0.8206   3.0927   O.2       2 RES2   0.0000
    92 O7      15.2451   4.4065  14.1231   O.3       3 RES3   0.0000
    93 C36     14.3047   4.9149  13.1928   C.3       3 RES3   0.0000
    94 C37     13.3127   5.8158  13.9046   C.3       3 RES3   0.0000
    95 H45     14.7603   5.4091  12.5206   H         3 RES3   0.0000
    96 H46     13.8401   4.1897  12.7912   H         3 RES3   0.0000
    97 H47     13.7757   6.5508  14.2959   H         3 RES3   0.0000
    98 H48     12.6764   6.1450  13.2803   H         3 RES3   0.0000
    99 H49     12.8671   5.3279  14.5852   H         3 RES3   0.0000
@<TRIPOS>BOND
     1     1     2    1
     2     2     8    1
     3     3     1    1
     4     4     1    1
     5     5     1    1
     6     6     1    1
     7     7     1    1
     8     8     9   ar
     9     9     3    1
    10    10     9   ar
    11    11    10   ar
    12    12    11   ar
    13    13     8   ar
    14    14     4    1
    15    15     5   ar
    16    16    15   ar
    17    17    16   ar
    18    18    17   ar
    19    19     5   ar
    20    20    19    1
    21    21     4    1
    22    22     6   ar
    23    23    22   ar
    24    24    23   ar
    25    25    24   ar
    26    26     6   ar
    27    27    26    1
    28    28     4    1
    29    29     7   ar
    30    30    29   ar
    31    31    30   ar
    32    32    31   ar
    33    33     7   ar
    34    34    33    1
    35    35    12    1
    36    36    35    1
    37    37    35    1
    38    38    35    1
    39    39    10    1
    40    40    39    1
    41    41    39    1
    42    42    39    1
    43    43    14    1
    44    44    14    1
    45    45    16    1
    46    46    17    1
    47    47    18    1
    48    48    20    1
    49    49    20    1
    50    50    20    1
    51    51    21    1
    52    52    21    1
    53    53    23    1
    54    54    24    1
    55    55    25    1
    56    56    27    1
    57    57    27    1
    58    58    27    1
    59    59    28    1
    60    60    28    1
    61    61    30    1
    62    62    31    1
    63    63    32    1
    64    64    34    1
    65    65    34    1
    66    66    34    1
    67    67    11    1
    68    68    13    1
    69    69    36    1
    70    70    36    1
    71    71    36    1
    72    72    37    1
    73    73    37    1
    74    74    37    1
    75    75    38    1
    76    76    38    1
    77    77    38    1
    78    78    40    1
    79    79    40    1
    80    80    40    1
    81    81    41    1
    82    82    41    1
    83    83    41    1
    84    84    42    1
    85    85    42    1
    86    86    42    1
    87    12    13   ar
    88    14    15    1
    89    18    19   ar
    90    21    22    1
    91    25    26   ar
    92    28    29    1
    93    32    33   ar
    94    87    88    2
    95    89    87    1
    96    90    87    2
    97    91    87    2
    98    92    93    1
    99    93    94    1
   100    94    97    1
   101    95    93    1
   102    96    93    1
   103    98    94    1
   104    99    94    1
@<TRIPOS>SUBSTRUCTURE
     1 RES1        1 GROUP             0 ****  ****    0  
     2 RES2       87 GROUP             0 ****  ****    0  
     3 RES3       92 GROUP             0 ****  ****    0  
@<TRIPOS>CRYSIN
   20.5660    8.9200   20.8300   90.0000   92.3700   90.0000    14     1
