@<TRIPOS>MOLECULE
ZAQSOZ
    88    93     3     0     0
SMALL
USER_CHARGES
****
Generated from the CSD

@<TRIPOS>ATOM
     1 Fe1     13.2678   4.0604  23.3790   Fe        1 RES1   0.0000
     2 O1      14.6593   5.4364  23.0518   O.3       1 RES1   0.0000
     3 O2      11.4855   3.2338  23.8124   O.3       1 RES1  -1.0000
     4 O3      13.5407   4.2792  25.2896   O.3       1 RES1   0.0000
     5 O4      13.4408   3.3991  21.5068   O.3       1 RES1   0.0000
     6 N1      11.8920   5.5135  22.8343   N.2       1 RES1   0.0000
     7 N2      10.4662   5.1876  23.1656   N.2       1 RES1   0.0000
     8 N3      14.3489   2.3018  23.5110   N.2       1 RES1   0.0000
     9 N4      14.7929   1.6972  22.2095   N.2       1 RES1   0.0000
    10 C1      14.5158   6.4991  22.3272   C.2       1 RES1   0.0000
    11 C2      13.3771   7.0234  21.9440   C.2       1 RES1   0.0000
    12 C3      11.9991   6.5920  22.2254   C.2       1 RES1   0.0000
    13 C4      10.8678   7.4894  21.8202   C.3       1 RES1   0.0000
    14 C5      10.4412   4.0147  23.6627   C.2       1 RES1   0.0000
    15 C6       9.1407   3.5062  24.1637   C.ar      1 RES1   0.0000
    16 C7       7.9556   4.0446  23.7705   C.ar      1 RES1   0.0000
    17 C8       6.7611   3.5597  24.2176   C.ar      1 RES1   0.0000
    18 C9       6.7428   2.5458  25.1039   C.ar      1 RES1   0.0000
    19 C10      7.8627   1.9790  25.5131   C.ar      1 RES1   0.0000
    20 C11      9.1030   2.4529  25.0540   C.ar      1 RES1   0.0000
    21 C12     15.8235   7.1682  22.0258   C.ar      1 RES1   0.0000
    22 C13     15.9042   8.5458  21.8701   C.ar      1 RES1   0.0000
    23 C14     17.0963   9.1536  21.5427   C.ar      1 RES1   0.0000
    24 C15     18.1933   8.4309  21.4010   C.ar      1 RES1   0.0000
    25 C16     18.1786   7.0596  21.5627   C.ar      1 RES1   0.0000
    26 C17     16.9635   6.4535  21.9020   C.ar      1 RES1   0.0000
    27 C18     13.8733   3.3944  26.1300   C.2       1 RES1   0.0000
    28 C19     14.3515   2.1790  25.7666   C.2       1 RES1   0.0000
    29 C20     14.7123   1.5949  24.4073   C.2       1 RES1   0.0000
    30 C21     15.3502   0.2692  24.4192   C.3       1 RES1   0.0000
    31 C22     14.2287   2.3663  21.2673   C.2       1 RES1   0.0000
    32 C23     14.5397   2.0436  19.8919   C.ar      1 RES1   0.0000
    33 C24     15.0403   0.7935  19.5486   C.ar      1 RES1   0.0000
    34 C25     15.3066   0.5227  18.2391   C.ar      1 RES1   0.0000
    35 C26     15.1447   1.4484  17.2470   C.ar      1 RES1   0.0000
    36 C27     14.6813   2.7158  17.6123   C.ar      1 RES1   0.0000
    37 C28     14.3811   2.9819  18.9058   C.ar      1 RES1   0.0000
    38 C29     13.6289   3.7172  27.5353   C.ar      1 RES1   0.0000
    39 C30     14.4340   3.2653  28.5114   C.ar      1 RES1   0.0000
    40 C31     14.1553   3.6321  29.8668   C.ar      1 RES1   0.0000
    41 C32     13.1123   4.4162  30.1522   C.ar      1 RES1   0.0000
    42 C33     12.3226   4.8381  29.2061   C.ar      1 RES1   0.0000
    43 C34     12.5438   4.4965  27.8746   C.ar      1 RES1   0.0000
    44 H1      13.4758   7.7933  21.3591   H         1 RES1   0.0000
    45 H2       9.9853   7.1005  22.0578   H         1 RES1   0.0000
    46 H3      10.8934   8.3443  22.2374   H         1 RES1   0.0000
    47 H4      10.8192   7.6201  20.8600   H         1 RES1   0.0000
    48 H5       7.9674   4.8649  23.1956   H         1 RES1   0.0000
    49 H6       5.9125   3.9360  23.9142   H         1 RES1   0.0000
    50 H7       5.8707   2.1884  25.3914   H         1 RES1   0.0000
    51 H8       7.8492   1.2438  26.1699   H         1 RES1   0.0000
    52 H9       9.9399   2.0467  25.3714   H         1 RES1   0.0000
    53 H10     15.0814   9.1000  21.9779   H         1 RES1   0.0000
    54 H11     17.1330  10.1391  21.4190   H         1 RES1   0.0000
    55 H12     19.0530   8.8639  21.1595   H         1 RES1   0.0000
    56 H13     19.0127   6.5495  21.4589   H         1 RES1   0.0000
    57 H14     16.9505   5.4632  21.9779   H         1 RES1   0.0000
    58 H15     14.5322   1.5429  26.5092   H         1 RES1   0.0000
    59 H16     15.5394  -0.0472  23.5349   H         1 RES1   0.0000
    60 H17     16.1721   0.2834  24.9123   H         1 RES1   0.0000
    61 H18     14.7829  -0.3936  24.8524   H         1 RES1   0.0000
    62 H19     11.9437   4.8334  27.1280   H         1 RES1   0.0000
    63 H20     15.6533  -0.3464  18.0055   H         1 RES1   0.0000
    64 H21     15.3691   1.2595  16.3088   H         1 RES1   0.0000
    65 H22     14.5586   3.4007  16.9276   H         1 RES1   0.0000
    66 H23     14.0457   3.8573  19.1433   H         1 RES1   0.0000
    67 H24     15.1896   2.6450  28.3457   H         1 RES1   0.0000
    68 H25     14.7442   3.3377  30.6014   H         1 RES1   0.0000
    69 H26     12.8091   4.7075  31.0405   H         1 RES1   0.0000
    70 H27     11.5220   5.4317  29.3438   H         1 RES1   0.0000
    71 H28     15.1518   0.0787  20.2213   H         1 RES1   0.0000
    72 O5       0.1745   2.4876   0.3793   O.3       2 RES2   0.0000
    73 N5      10.7647   0.7919  16.8657   N.4       3 RES3   1.0000
    74 C35     11.7789  -0.0315  17.4246   C.3       3 RES3   0.0000
    75 C36     10.3013   0.2991  15.5702   C.3       3 RES3   0.0000
    76 C37      9.5488   0.8344  17.7959   C.3       3 RES3   0.0000
    77 C38     11.2222   2.2356  16.7878   C.3       3 RES3   0.0000
    78 H29     12.0795   0.2834  18.3249   H         3 RES3   0.0000
    79 H30     11.4674  -0.9604  17.6063   H         3 RES3   0.0000
    80 H31     12.5759  -0.1260  16.9076   H         3 RES3   0.0000
    81 H32     10.9726   0.3621  15.0711   H         3 RES3   0.0000
    82 H33     10.3797  -0.5668  16.1890   H         3 RES3   0.0000
    83 H34      9.4914   1.1651  15.0512   H         3 RES3   0.0000
    84 H35      8.9969   1.0234  16.9276   H         3 RES3   0.0000
    85 H36      9.4347  -0.3936  17.8059   H         3 RES3   0.0000
    86 H37     11.8276   1.7948  17.8259   H         3 RES3   0.0000
    87 H38     11.9716   2.2514  16.3686   H         3 RES3   0.0000
    88 H39     10.4925   2.4246  16.2489   H         3 RES3   0.0000
@<TRIPOS>BOND
     1     1     2    1
     2     2    10    1
     3     3     1    1
     4     4     1    1
     5     5     1    1
     6     6     1    1
     7     7     6    1
     8     8     1    1
     9     9     8    1
    10    10    11    2
    11    11    12    1
    12    12     6    2
    13    13    12    1
    14    14     3    1
    15    15    14    1
    16    16    15   ar
    17    17    16   ar
    18    18    17   ar
    19    19    18   ar
    20    20    15   ar
    21    21    10    1
    22    22    21   ar
    23    23    22   ar
    24    24    23   ar
    25    25    24   ar
    26    26    21   ar
    27    27     4    1
    28    28    27    2
    29    29     8    2
    30    30    29    1
    31    31     5    1
    32    32    31    1
    33    33    32   ar
    34    34    33   ar
    35    35    34   ar
    36    36    35   ar
    37    37    32   ar
    38    38    27    1
    39    39    38   ar
    40    40    39   ar
    41    41    40   ar
    42    42    41   ar
    43    43    38   ar
    44    44    11    1
    45    45    13    1
    46    46    13    1
    47    47    13    1
    48    48    16    1
    49    49    17    1
    50    50    18    1
    51    51    19    1
    52    52    20    1
    53    53    22    1
    54    54    23    1
    55    55    24    1
    56    56    25    1
    57    57    26    1
    58    58    28    1
    59    59    30    1
    60    60    30    1
    61    61    30    1
    62    62    43    1
    63    63    34    1
    64    64    35    1
    65    65    36    1
    66    66    37    1
    67    67    39    1
    68    68    40    1
    69    69    41    1
    70    70    42    1
    71    71    33    1
    72     7    14    2
    73     9    31    2
    74    19    20   ar
    75    25    26   ar
    76    28    29    1
    77    36    37   ar
    78    42    43   ar
    79    73    74    1
    80    74    78    1
    81    75    73    1
    82    76    73    1
    83    77    73    1
    84    79    74    1
    85    80    74    1
    86    81    75    1
    87    82    75    1
    88    83    75    1
    89    84    76    1
    90    85    76    1
    91    86    77    1
    92    87    77    1
    93    88    77    1
@<TRIPOS>SUBSTRUCTURE
     1 RES1        1 GROUP             0 ****  ****    0  
     2 RES2       72 GROUP             0 ****  ****    0  
     3 RES3       73 GROUP             0 ****  ****    0  
@<TRIPOS>CRYSIN
   11.3970   15.7440   19.9660   90.0000   91.1800   90.0000   231     1
