@<TRIPOS>MOLECULE
ZASCII
    87    93     3     0     0
SMALL
USER_CHARGES
****
Generated from the CSD

@<TRIPOS>ATOM
     1 Fe1      4.6249   4.1983   3.4970   Fe        1 RES1   2.0000
     2 N1       5.6102   5.6056   2.5165   N.ar      1 RES1   0.0000
     3 N2       3.5036   4.2364   1.8912   N.ar      1 RES1   0.0000
     4 N3       5.5955   2.6972   2.6731   N.ar      1 RES1   0.0000
     5 C1       2.2805   4.2913  -0.6798   C.ar      1 RES1   0.0000
     6 C2       6.8189   7.7238   0.9288   C.ar      1 RES1   0.0000
     7 C3       5.7416   6.9939   0.5260   C.ar      1 RES1   0.0000
     8 H1       5.3524   7.2189  -0.2882   H         1 RES1   0.0000
     9 C4       6.6658   0.4390   1.4352   C.ar      1 RES1   0.0000
    10 C5       5.1503   5.8800   1.2715   C.ar      1 RES1   0.0000
    11 C6       1.7844   3.5203   0.3735   C.ar      1 RES1   0.0000
    12 H2       1.0285   2.9935   0.2546   H         1 RES1   0.0000
    13 C7       1.7053   4.2200  -2.0954   C.3       1 RES1   0.0000
    14 H3       1.8634   5.0513  -2.5472   H         1 RES1   0.0000
    15 H4       0.7606   4.0553  -2.0493   H         1 RES1   0.0000
    16 H5       2.1313   3.5093  -2.5780   H         1 RES1   0.0000
    17 C8       3.9526   5.0760   0.8743   C.ar      1 RES1   0.0000
    18 C9       5.6483   0.2908   2.4242   C.ar      1 RES1   0.0000
    19 H6       5.3219  -0.5488   2.6620   H         1 RES1   0.0000
    20 C10      6.7326   6.3546   2.9739   C.ar      1 RES1   0.0000
    21 H7       7.1107   6.1543   3.7992   H         1 RES1   0.0000
    22 C11      2.4386   3.5532   1.6114   C.ar      1 RES1   0.0000
    23 H8       2.0758   3.0346   2.2941   H         1 RES1   0.0000
    24 C12      5.1585   1.4597   3.0270   C.ar      1 RES1   0.0000
    25 C13      3.2768   5.0705  -0.4504   C.ar      1 RES1   0.0000
    26 H9       3.5810   5.6358  -1.1233   H         1 RES1   0.0000
    27 C14      7.2545   7.3506   2.2339   C.ar      1 RES1   0.0000
    28 H10      7.9583   7.8335   2.6032   H         1 RES1   0.0000
    29 C15      6.5605   2.7712   1.7681   C.ar      1 RES1   0.0000
    30 H11      6.8828   3.6136   1.5387   H         1 RES1   0.0000
    31 C16      7.0918   1.7204   1.1736   C.ar      1 RES1   0.0000
    32 H12      7.7764   1.8493   0.5567   H         1 RES1   0.0000
    33 C17      7.3225   8.7911   0.1832   C.3       1 RES1   0.0000
    34 H13      7.3268   8.5552  -0.7484   H         1 RES1   0.0000
    35 H14      8.2177   8.9859   0.4672   H         1 RES1   0.0000
    36 H15      6.7689   9.5621   0.3147   H         1 RES1   0.0000
    37 C18      7.2807  -0.9795   0.7917   C.3       1 RES1   0.0000
    38 H16      6.5593  -1.5256   0.4714   H         1 RES1   0.0000
    39 H17      7.7651  -1.4542   1.4716   H         1 RES1   0.0000
    40 H18      7.8722  -0.7710   0.0643   H         1 RES1   0.0000
    41 N3A      3.6543   2.6972   4.3210   N.ar      1 RES1   0.0000
    42 C4A      2.5840   0.4390   5.5589   C.ar      1 RES1   0.0000
    43 C9A      3.6015   0.2908   4.5699   C.ar      1 RES1   0.0000
    44 H6A      3.9279  -0.5488   4.3321   H         1 RES1   0.0000
    45 C12A     4.0914   1.4597   3.9671   C.ar      1 RES1   0.0000
    46 C15A     2.6893   2.7712   5.2260   C.ar      1 RES1   0.0000
    47 H11A     2.3670   3.6136   5.4554   H         1 RES1   0.0000
    48 C16A     2.1580   1.7204   5.8205   C.ar      1 RES1   0.0000
    49 H12A     1.4734   1.8493   6.4374   H         1 RES1   0.0000
    50 C18A     1.9691  -0.9795   6.2024   C.3       1 RES1   0.0000
    51 H16A     2.6905  -1.5256   6.5227   H         1 RES1   0.0000
    52 H17A     1.4847  -1.4542   5.5225   H         1 RES1   0.0000
    53 H18A     1.3776  -0.7710   6.9297   H         1 RES1   0.0000
    54 N1A      3.6396   5.6056   4.4776   N.ar      1 RES1   0.0000
    55 N2A      5.7462   4.2364   5.1029   N.ar      1 RES1   0.0000
    56 C1A      6.9693   4.2913   7.6739   C.ar      1 RES1   0.0000
    57 C2A      2.4309   7.7238   6.0653   C.ar      1 RES1   0.0000
    58 C3A      3.5082   6.9939   6.4681   C.ar      1 RES1   0.0000
    59 H1A      3.8975   7.2189   7.2823   H         1 RES1   0.0000
    60 C5A      4.0995   5.8800   5.7226   C.ar      1 RES1   0.0000
    61 C6A      7.4654   3.5203   6.6206   C.ar      1 RES1   0.0000
    62 H2A      8.2213   2.9935   6.7395   H         1 RES1   0.0000
    63 C7A      7.5445   4.2200   9.0895   C.3       1 RES1   0.0000
    64 H3A      7.3864   5.0513   9.5413   H         1 RES1   0.0000
    65 H4A      8.4892   4.0553   9.0434   H         1 RES1   0.0000
    66 H5A      7.1185   3.5093   9.5721   H         1 RES1   0.0000
    67 C8A      5.2972   5.0760   6.1198   C.ar      1 RES1   0.0000
    68 C10A     2.5172   6.3546   4.0202   C.ar      1 RES1   0.0000
    69 H7A      2.1391   6.1543   3.1949   H         1 RES1   0.0000
    70 C11A     6.8112   3.5532   5.3827   C.ar      1 RES1   0.0000
    71 H8A      7.1740   3.0346   4.7000   H         1 RES1   0.0000
    72 C13A     5.9730   5.0705   7.4445   C.ar      1 RES1   0.0000
    73 H9A      5.6688   5.6358   8.1173   H         1 RES1   0.0000
    74 C14A     1.9953   7.3506   4.7602   C.ar      1 RES1   0.0000
    75 H10A     1.2915   7.8335   4.3909   H         1 RES1   0.0000
    76 C17A     1.9273   8.7911   6.8108   C.3       1 RES1   0.0000
    77 H13A     1.9230   8.5552   7.7425   H         1 RES1   0.0000
    78 H14A     1.0321   8.9859   6.5269   H         1 RES1   0.0000
    79 H15A     2.4809   9.5621   6.6794   H         1 RES1   0.0000
    80 Cl1     -0.7881  10.1932   3.4970   Cl        2 RES2   0.0000
    81 O1       0.1623  10.9286   4.1559   O.3       2 RES2  -1.0000
    82 O2      -0.2881   9.4222   2.6717   O.2       2 RES2   0.0000
    83 O1A     -1.7385  10.9286   2.8382   O.2       2 RES2   0.0000
    84 O2A     -1.2880   9.4222   4.3224   O.2       2 RES2   0.0000
    85 N4      -0.7881   5.3833   3.4970   N.1       3 RES3   0.0000
    86 S1      -0.7881   3.1307   3.4970   S.2       3 RES3  -1.0000
    87 C19     -0.7881   4.7166   3.4970   C.1       3 RES3   0.0000
@<TRIPOS>BOND
     1     1     2    1
     2     2    10   ar
     3     3     1    1
     4     4     1    1
     5     5    11   ar
     6     6     7   ar
     7     7     8    1
     8     9    18   ar
     9    10     7   ar
    10    11    12    1
    11    13     5    1
    12    14    13    1
    13    15    13    1
    14    16    13    1
    15    17     3   ar
    16    18    19    1
    17    20     2   ar
    18    21    20    1
    19    22     3   ar
    20    23    22    1
    21    24     4   ar
    22    25     5   ar
    23    26    25    1
    24    27     6   ar
    25    28    27    1
    26    29     4   ar
    27    30    29    1
    28    31     9   ar
    29    32    31    1
    30    33     6    1
    31    34    33    1
    32    35    33    1
    33    36    33    1
    34    37     9    1
    35    38    37    1
    36    39    37    1
    37    40    37    1
    38    41     1    1
    39    42    43   ar
    40    43    44    1
    41    45    24    1
    42    46    41   ar
    43    47    46    1
    44    48    42   ar
    45    49    48    1
    46    50    42    1
    47    51    50    1
    48    52    50    1
    49    53    50    1
    50    54     1    1
    51    55     1    1
    52    56    61   ar
    53    57    58   ar
    54    58    59    1
    55    60    54   ar
    56    61    62    1
    57    63    56    1
    58    64    63    1
    59    65    63    1
    60    66    63    1
    61    67    55   ar
    62    68    54   ar
    63    69    68    1
    64    70    55   ar
    65    71    70    1
    66    72    56   ar
    67    73    72    1
    68    74    57   ar
    69    75    74    1
    70    76    57    1
    71    77    76    1
    72    78    76    1
    73    79    76    1
    74    10    17    1
    75    11    22   ar
    76    17    25   ar
    77    18    24   ar
    78    20    27   ar
    79    29    31   ar
    80    41    45   ar
    81    43    45   ar
    82    46    48   ar
    83    58    60   ar
    84    60    67    1
    85    61    70   ar
    86    67    72   ar
    87    68    74   ar
    88    80    81    1
    89    82    80    2
    90    83    80    2
    91    84    80    2
    92    85    87    3
    93    86    87    1
@<TRIPOS>SUBSTRUCTURE
     1 RES1        1 GROUP             0 ****  ****    0  
     2 RES2       80 GROUP             0 ****  ****    0  
     3 RES3       85 GROUP             0 ****  ****    0  
@<TRIPOS>CRYSIN
   10.8260   27.4380   14.3390   90.0000  102.7000   90.0000    15     1
