@<TRIPOS>MOLECULE
ZASLEN
    80    86     3     0     0
SMALL
USER_CHARGES
****
Generated from the CSD

@<TRIPOS>ATOM
     1 Fe1      5.9515   4.3107   3.6097   Fe        1 RES1   2.0000
     2 N1       5.9522   5.3712   1.6619   N.ar      1 RES1   0.0000
     3 N2       5.8138   2.9868   5.3222   N.ar      1 RES1   0.0000
     4 N3       7.8434   5.3443   4.2450   N.ar      1 RES1   0.0000
     5 N4       4.0108   3.3423   3.3281   N.2       1 RES1   0.0000
     6 N5       5.3044   6.0485   4.6196   N.2       1 RES1   0.0000
     7 N6       7.1307   2.9929   2.3375   N.2       1 RES1   0.0000
     8 N7       7.9873   2.6818   0.2995   N.2       1 RES1   0.0000
     9 C1       7.8576   1.8594   2.3403   C.2       1 RES1   0.0000
    10 C2       3.8433   2.3747   4.2208   C.2       1 RES1   0.0000
    11 C3       7.1211   3.4412   1.1766   C.2       1 RES1   0.0000
    12 C4       6.3859   6.8655   5.0014   C.2       1 RES1   0.0000
    13 C5       3.0105   3.3238   2.3971   C.2       1 RES1   0.0000
    14 C6       6.6200   4.6756   0.7025   C.ar      1 RES1   0.0000
    15 N8       2.6719   1.6464   4.0122   N.2       1 RES1   0.0000
    16 C7       4.2253   6.7190   4.9844   C.2       1 RES1   0.0000
    17 C8       4.4810   7.9706   5.6230   C.2       1 RES1   0.0000
    18 C9       4.7341   2.2869   5.2895   C.ar      1 RES1   0.0000
    19 C10      5.5912   1.3763   7.2239   C.ar      1 RES1   0.0000
    20 H1       5.4507   0.9262   8.0201   H         1 RES1   0.0000
    21 N9       5.8635   8.0630   5.5904   N.2       1 RES1   0.0000
    22 C11      6.6911   2.9003   6.3752   C.ar      1 RES1   0.0000
    23 H2       7.2356   3.6529   6.4377   H         1 RES1   0.0000
    24 C12      8.7344   7.2514   5.2129   C.ar      1 RES1   0.0000
    25 H3       8.5802   8.0436   5.6741   H         1 RES1   0.0000
    26 C13      4.5377   1.2078   6.3454   C.ar      1 RES1   0.0000
    27 H4       3.8576   0.5743   6.3908   H         1 RES1   0.0000
    28 C14      7.6164   6.4969   4.7644   C.ar      1 RES1   0.0000
    29 C15      2.9719   6.0945   4.8226   C.3       1 RES1   0.0000
    30 H5       2.4734   6.5536   4.1456   H         1 RES1   0.0000
    31 H6       2.4957   6.1202   5.6514   H         1 RES1   0.0000
    32 H7       3.1091   5.1804   4.5572   H         1 RES1   0.0000
    33 C16      3.5505   8.9158   6.0715   C.3       1 RES1   0.0000
    34 H8       2.8350   8.4683   6.5228   H         1 RES1   0.0000
    35 H9       3.2059   9.4038   5.3207   H         1 RES1   0.0000
    36 H10      3.9820   9.5252   6.6761   H         1 RES1   0.0000
    37 C17     10.0412   6.8507   4.9901   C.ar      1 RES1   0.0000
    38 H11     10.7752   7.3367   5.2952   H         1 RES1   0.0000
    39 C18      9.1107   4.8816   3.9966   C.ar      1 RES1   0.0000
    40 H12      9.1878   4.0153   3.6673   H         1 RES1   0.0000
    41 C19      6.9222   2.1015   7.2239   C.ar      1 RES1   0.0000
    42 H13      7.6944   1.9715   7.7405   H         1 RES1   0.0000
    43 C20      5.2759   6.5803   1.3909   C.ar      1 RES1   0.0000
    44 H14      4.8580   7.0641   2.0664   H         1 RES1   0.0000
    45 C21      6.6470   5.1669  -0.6174   C.ar      1 RES1   0.0000
    46 H15      7.1322   4.7610  -1.2943   H         1 RES1   0.0000
    47 C22     10.1660   5.5156   4.1726   C.ar      1 RES1   0.0000
    48 H16     10.9852   5.2147   3.8419   H         1 RES1   0.0000
    49 C23      2.7853   4.3493   1.3568   C.3       1 RES1   0.0000
    50 H17      3.2858   4.1332   0.5691   H         1 RES1   0.0000
    51 H18      3.0684   5.2102   1.6861   H         1 RES1   0.0000
    52 H19      1.8490   4.3918   1.1397   H         1 RES1   0.0000
    53 C24      7.8464   1.0494   3.4488   C.3       1 RES1   0.0000
    54 H20      7.8725   1.5932   4.2464   H         1 RES1   0.0000
    55 H21      8.6078   0.4678   3.4388   H         1 RES1   0.0000
    56 H22      7.0414   0.5230   3.4587   H         1 RES1   0.0000
    57 C25      2.1245   2.4033   2.8158   C.2       1 RES1   0.0000
    58 C26      5.2696   7.0245   0.0568   C.ar      1 RES1   0.0000
    59 H23      4.8339   7.8026  -0.2157   H         1 RES1   0.0000
    60 C27      0.6433   2.0744   2.3559   C.3       1 RES1   0.0000
    61 H24      0.0622   2.7951   2.6114   H         1 RES1   0.0000
    62 H25      0.3509   1.2641   2.7846   H         1 RES1   0.0000
    63 H26      0.6205   1.9618   1.4065   H         1 RES1   0.0000
    64 C28      5.9365   6.2115  -0.8090   C.ar      1 RES1   0.0000
    65 H27      5.8652   6.4633  -1.7003   H         1 RES1   0.0000
    66 C29      8.3685   1.8219   1.0588   C.2       1 RES1   0.0000
    67 C30      9.6645   0.6489   0.5109   C.3       1 RES1   0.0000
    68 H28      9.6168   0.5389  -0.4442   H         1 RES1   0.0000
    69 H29      9.5255  -0.2044   0.9324   H         1 RES1   0.0000
    70 H30     10.5287   0.9853   0.7494   H         1 RES1   0.0000
    71 Cl1     11.3310   2.5557   6.7726   Cl        2 RES2   0.0000
    72 O1      10.5509   2.1585   5.6756   O.2       2 RES2   0.0000
    73 O2      10.9077   3.0065   7.8484   O.2       2 RES2   0.0000
    74 O3      12.1336   1.2943   7.0536   O.3       2 RES2  -1.0000
    75 O4      12.3289   3.4085   6.1169   O.2       2 RES2   0.0000
    76 Cl2      4.3093  10.4947   2.1345   Cl        3 RES3   0.0000
    77 O5       6.0340  10.2932   2.2850   O.3       3 RES3  -1.0000
    78 O6       3.7247  10.4151   0.7948   O.2       3 RES3   0.0000
    79 O7       3.1143   9.6634   2.4553   O.2       3 RES3   0.0000
    80 O8       3.6512  11.3481   3.1649   O.2       3 RES3   0.0000
@<TRIPOS>BOND
     1     1     2    1
     2     2    14   ar
     3     3     1    1
     4     4     1    1
     5     5     1    1
     6     6     1    1
     7     7     1    1
     8     8    11    2
     9     9     7    1
    10    10     5    1
    11    11     7    1
    12    12     6    1
    13    13     5    1
    14    14    11    1
    15    15    10    2
    16    16     6    1
    17    17    16    2
    18    18     3   ar
    19    19    20    1
    20    21    12    2
    21    22     3   ar
    22    23    22    1
    23    24    25    1
    24    26    18   ar
    25    27    26    1
    26    28     4   ar
    27    29    16    1
    28    30    29    1
    29    31    29    1
    30    32    29    1
    31    33    17    1
    32    34    33    1
    33    35    33    1
    34    36    33    1
    35    37    24   ar
    36    38    37    1
    37    39     4   ar
    38    40    39    1
    39    41    19   ar
    40    42    41    1
    41    43     2   ar
    42    44    43    1
    43    45    14   ar
    44    46    45    1
    45    47    37   ar
    46    48    47    1
    47    49    13    1
    48    50    49    1
    49    51    49    1
    50    52    49    1
    51    53     9    1
    52    54    53    1
    53    55    53    1
    54    56    53    1
    55    57    13    2
    56    58    43   ar
    57    59    58    1
    58    60    57    1
    59    61    60    1
    60    62    60    1
    61    63    60    1
    62    64    45   ar
    63    65    64    1
    64    66     8    1
    65    67    66    1
    66    68    67    1
    67    69    67    1
    68    70    67    1
    69     9    66    2
    70    10    18    1
    71    12    28    1
    72    15    57    1
    73    17    21    1
    74    19    26   ar
    75    22    41   ar
    76    24    28   ar
    77    39    47   ar
    78    58    64   ar
    79    71    72    2
    80    73    71    2
    81    74    71    1
    82    75    71    2
    83    76    77    1
    84    78    76    2
    85    79    76    2
    86    80    76    2
@<TRIPOS>SUBSTRUCTURE
     1 RES1        1 GROUP             0 ****  ****    0  
     2 RES2       71 GROUP             0 ****  ****    0  
     3 RES3       76 GROUP             0 ****  ****    0  
@<TRIPOS>CRYSIN
   10.9990   14.0350   14.6500   85.4300   75.6500   73.1200     2     1
