@<TRIPOS>MOLECULE
ZASMAK
    87    93     3     0     0
SMALL
USER_CHARGES
****
Generated from the CSD

@<TRIPOS>ATOM
     1 Fe1     -0.7471   4.5595   3.7762   Fe        1 RES1   2.0000
     2 N1       0.2576   2.9100   2.8609   N.ar      1 RES1   0.0000
     3 N2       0.2698   6.0251   2.7340   N.ar      1 RES1   0.0000
     4 N3      -2.0331   4.5739   2.0089   N.ar      1 RES1   0.0000
     5 C1      -0.1791   1.5761   3.2868   C.ar      1 RES1   0.0000
     6 C2      -3.3743   4.5755  -0.7024   C.ar      1 RES1   0.0000
     7 C3       1.4451   0.4278   1.6041   C.ar      1 RES1   0.0000
     8 C4      -1.5431   5.4563   0.9576   C.ar      1 RES1   0.0000
     9 C5      -3.1717   3.8369   1.6706   C.ar      1 RES1   0.0000
    10 H1      -3.5274   3.3059   2.3458   H         1 RES1   0.0000
    11 C6       0.3574   0.3843   2.6237   C.ar      1 RES1   0.0000
    12 H2      -0.0002  -0.4453   2.8518   H         1 RES1   0.0000
    13 C7       1.4519   6.7944   3.2385   C.ar      1 RES1   0.0000
    14 H3       1.8322   6.5918   4.0602   H         1 RES1   0.0000
    15 C8      -3.8756   3.7850   0.4003   C.ar      1 RES1   0.0000
    16 H4      -4.6364   3.2548   0.2961   H         1 RES1   0.0000
    17 C9      -0.3097   6.3467   1.3398   C.ar      1 RES1   0.0000
    18 C10     -2.2100   5.4497  -0.4048   C.ar      1 RES1   0.0000
    19 H5      -1.8802   6.0074  -1.0679   H         1 RES1   0.0000
    20 C11      2.0182   7.9008   2.4017   C.ar      1 RES1   0.0000
    21 H6       2.7482   8.3879   2.7204   H         1 RES1   0.0000
    22 C12      2.0397  -0.9086   0.9033   C.3       1 RES1   0.0000
    23 H7       1.9179  -1.6555   1.4893   H         1 RES1   0.0000
    24 H8       2.9768  -0.7855   0.7281   H         1 RES1   0.0000
    25 H9       1.5781  -1.0789   0.0770   H         1 RES1   0.0000
    26 C13      0.2745   7.4556   0.4773   C.ar      1 RES1   0.0000
    27 H10     -0.0710   7.6314  -0.3655   H         1 RES1   0.0000
    28 C14      1.8828   1.7952   1.2507   C.ar      1 RES1   0.0000
    29 H11      2.5451   1.8953   0.6057   H         1 RES1   0.0000
    30 C15      1.4265   8.2522   1.0332   C.ar      1 RES1   0.0000
    31 C16      1.3267   2.9803   1.8639   C.ar      1 RES1   0.0000
    32 H12      1.6574   3.8125   1.6177   H         1 RES1   0.0000
    33 C17      2.0593   9.4503   0.2341   C.3       1 RES1   0.0000
    34 H13      1.9483  10.2664   0.7356   H         1 RES1   0.0000
    35 H14      1.6186   9.5291  -0.6148   H         1 RES1   0.0000
    36 H15      2.9939   9.2893   0.0952   H         1 RES1   0.0000
    37 C18     -4.0409   4.4571  -2.2446   C.3       1 RES1   0.0000
    38 H16     -4.7723   3.8291  -2.2355   H         1 RES1   0.0000
    39 H17     -3.3723   4.1555  -2.8624   H         1 RES1   0.0000
    40 H18     -4.3616   5.3153  -2.5119   H         1 RES1   0.0000
    41 N1A     -1.7519   2.9426   4.6916   N.ar      1 RES1   0.0000
    42 C1A     -1.3151   1.5935   4.2656   C.ar      1 RES1   0.0000
    43 C3A     -2.9394   0.5051   5.9483   C.ar      1 RES1   0.0000
    44 C6A     -1.8517   0.4253   4.9287   C.ar      1 RES1   0.0000
    45 H2A     -1.4940  -0.4124   4.7006   H         1 RES1   0.0000
    46 C12A    -3.5340  -0.8063   6.6492   C.3       1 RES1   0.0000
    47 H7A     -3.4121  -1.5741   6.0631   H         1 RES1   0.0000
    48 H8A     -4.4710  -0.6770   6.8244   H         1 RES1   0.0000
    49 H9A     -3.0723  -0.9472   7.4754   H         1 RES1   0.0000
    50 C14A    -3.3771   1.8851   6.3017   C.ar      1 RES1   0.0000
    51 H11A    -4.0393   2.0081   6.9467   H         1 RES1   0.0000
    52 C16A    -2.8210   3.0484   5.6885   C.ar      1 RES1   0.0000
    53 H12A    -3.1517   3.8893   5.9347   H         1 RES1   0.0000
    54 N2A     -1.7641   6.0622   4.8184   N.ar      1 RES1   0.0000
    55 N3A      0.5388   4.6368   5.5435   N.ar      1 RES1   0.0000
    56 C2A      1.8800   4.7349   8.2548   C.ar      1 RES1   0.0000
    57 C4A      0.0488   5.5566   6.5948   C.ar      1 RES1   0.0000
    58 C5A      1.6774   3.9119   5.8818   C.ar      1 RES1   0.0000
    59 H1A      2.0331   3.3568   5.2066   H         1 RES1   0.0000
    60 C7A     -2.9462   6.8135   4.3139   C.ar      1 RES1   0.0000
    61 H3A     -3.3265   6.5817   3.4922   H         1 RES1   0.0000
    62 C8A      2.3813   3.9051   7.1521   C.ar      1 RES1   0.0000
    63 H4A      3.1421   3.3786   7.2564   H         1 RES1   0.0000
    64 C9A     -1.1845   6.4334   6.2126   C.ar      1 RES1   0.0000
    65 C10A     0.7157   5.5985   7.9572   C.ar      1 RES1   0.0000
    66 H5A      0.3859   6.1798   8.6203   H         1 RES1   0.0000
    67 C11A    -3.5125   7.9497   5.1508   C.ar      1 RES1   0.0000
    68 H6A     -4.2425   8.4254   4.8320   H         1 RES1   0.0000
    69 C13A    -1.7688   7.5730   7.0751   C.ar      1 RES1   0.0000
    70 H10A    -1.4233   7.7788   7.9180   H         1 RES1   0.0000
    71 C15A    -2.9208   8.3498   6.5192   C.ar      1 RES1   0.0000
    72 C17A    -3.5536   9.5763   7.3183   C.3       1 RES1   0.0000
    73 H13A    -3.4426  10.3746   6.8168   H         1 RES1   0.0000
    74 H14A    -3.1129   9.6854   8.1672   H         1 RES1   0.0000
    75 H15A    -4.4882   9.4203   7.4573   H         1 RES1   0.0000
    76 C18A     2.5466   4.6714   9.7970   C.3       1 RES1   0.0000
    77 H16A     3.2781   4.0430   9.7879   H         1 RES1   0.0000
    78 H17A     1.8780   4.3917  10.4148   H         1 RES1   0.0000
    79 H18A     2.8673   5.5391  10.0644   H         1 RES1   0.0000
    80 Se1     -2.2414   9.4892  11.3286   Se        2 RES2  -1.0000
    81 N4      -2.2414  12.7357  11.3286   N.1       2 RES2   0.0000
    82 C19     -2.2414  11.5792  11.3286   C.1       2 RES2   0.0000
    83 Cl1      5.1279  10.8049   3.7762   Cl        3 RES3   0.0000
    84 O1       6.4592  11.5519   4.1856   O.3       3 RES3  -1.0000
    85 O2       5.1325  10.7109   4.7626   O.2       3 RES3   0.0000
    86 O1A      3.7965  11.5373   3.3669   O.2       3 RES3   0.0000
    87 O2A      5.1233  10.6758   2.7899   O.2       3 RES3   0.0000
@<TRIPOS>BOND
     1     1     2    1
     2     2     5   ar
     3     3     1    1
     4     4     1    1
     5     5    11   ar
     6     6    15   ar
     7     7    11   ar
     8     8     4   ar
     9     9     4   ar
    10    10     9    1
    11    11    12    1
    12    13     3   ar
    13    14    13    1
    14    15     9   ar
    15    16    15    1
    16    17     3   ar
    17    18     6   ar
    18    19    18    1
    19    20    13   ar
    20    21    20    1
    21    22     7    1
    22    23    22    1
    23    24    22    1
    24    25    22    1
    25    26    17   ar
    26    27    26    1
    27    28     7   ar
    28    29    28    1
    29    30    20   ar
    30    31     2   ar
    31    32    31    1
    32    33    30    1
    33    34    33    1
    34    35    33    1
    35    36    33    1
    36    37     6    1
    37    38    37    1
    38    39    37    1
    39    40    37    1
    40    41     1    1
    41    42     5    1
    42    43    44   ar
    43    44    42   ar
    44    45    44    1
    45    46    43    1
    46    47    46    1
    47    48    46    1
    48    49    46    1
    49    50    43   ar
    50    51    50    1
    51    52    41   ar
    52    53    52    1
    53    54     1    1
    54    55     1    1
    55    56    62   ar
    56    57    55   ar
    57    58    55   ar
    58    59    58    1
    59    60    54   ar
    60    61    60    1
    61    62    58   ar
    62    63    62    1
    63    64    54   ar
    64    65    56   ar
    65    66    65    1
    66    67    60   ar
    67    68    67    1
    68    69    64   ar
    69    70    69    1
    70    71    67   ar
    71    72    71    1
    72    73    72    1
    73    74    72    1
    74    75    72    1
    75    76    56    1
    76    77    76    1
    77    78    76    1
    78    79    76    1
    79     8    17    1
    80     8    18   ar
    81    26    30   ar
    82    28    31   ar
    83    41    42   ar
    84    50    52   ar
    85    57    64    1
    86    57    65   ar
    87    69    71   ar
    88    80    82    1
    89    81    82    3
    90    83    84    1
    91    85    83    2
    92    86    83    2
    93    87    83    2
@<TRIPOS>SUBSTRUCTURE
     1 RES1        1 GROUP             0 ****  ****    0  
     2 RES2       80 GROUP             0 ****  ****    0  
     3 RES3       83 GROUP             0 ****  ****    0  
@<TRIPOS>CRYSIN
   11.7500   29.3540   15.4000   89.0000  101.1900   90.0000    15     1
