@<TRIPOS>MOLECULE
ZAVKEM
    56    65     3     0     0
SMALL
NO_CHARGES
****
Generated from the CSD

@<TRIPOS>ATOM
     1 Fe1      2.7903   3.2473   0.3435   Fe        1 RES1   0.0000
     2 O1       2.8248   1.5349   2.6988   O.3       1 RES1   0.0000
     3 O2       2.2401   0.3985   0.6192   O.3       1 RES1   0.0000
     4 O3       0.6288   1.8644   1.7021   O.3       1 RES1   0.0000
     5 O4       3.9493   5.9124   0.2149   O.3       1 RES1   0.0000
     6 O5       4.6447   4.3732  -1.5791   O.3       1 RES1   0.0000
     7 O6       2.4151   5.3709  -1.6173   O.3       1 RES1   0.0000
     8 N1       3.2629   2.7101   2.0979   N.2       1 RES1   0.0000
     9 N2       3.6699   4.8131   1.0433   N.2       1 RES1   0.0000
    10 N3       2.8630   1.4017  -0.0905   N.2       1 RES1   0.0000
    11 N4       4.1447   3.2219  -1.0334   N.2       1 RES1   0.0000
    12 N5       0.9608   2.8937   0.8525   N.2       1 RES1   0.0000
    13 N6       1.8113   4.4174  -0.8086   N.2       1 RES1   0.0000
    14 B1       1.7340   0.8751   1.9311   B         1 RES1   0.0000
    15 B2       3.8225   5.5924  -1.2695   B         1 RES1   0.0000
    16 C1       3.8315   3.5813   2.9207   C.2       1 RES1   0.0000
    17 C2       3.9991   3.3767   4.3811   C.3       1 RES1   0.0000
    18 C3       3.5911   4.5676   5.1883   C.3       1 RES1   0.0000
    19 C4       4.5512   5.7451   5.2533   C.3       1 RES1   0.0000
    20 C5       4.5852   6.5311   3.9202   C.3       1 RES1   0.0000
    21 C6       5.0643   5.8822   2.7256   C.3       1 RES1   0.0000
    22 C7       4.1765   4.7855   2.2068   C.2       1 RES1   0.0000
    23 C8       3.7039   1.0047  -0.9981   C.2       1 RES1   0.0000
    24 C9       4.0141  -0.4280  -1.3854   C.3       1 RES1   0.0000
    25 C10      3.5315  -0.7480  -2.7694   C.3       1 RES1   0.0000
    26 C11      4.4135  -0.2043  -3.9527   C.3       1 RES1   0.0000
    27 C12      4.4942   1.3086  -4.0149   C.3       1 RES1   0.0000
    28 C13      5.2144   1.9949  -2.8627   C.3       1 RES1   0.0000
    29 C14      4.4051   2.0928  -1.6413   C.2       1 RES1   0.0000
    30 C15      0.0423   3.4374   0.1513   C.2       1 RES1   0.0000
    31 C16     -1.4427   3.0523   0.2870   C.3       1 RES1   0.0000
    32 C17     -2.3751   4.1655   0.7380   C.3       1 RES1   0.0000
    33 C18     -2.6301   5.2395  -0.3223   C.3       1 RES1   0.0000
    34 C19     -1.4644   6.1060  -0.6446   C.3       1 RES1   0.0000
    35 C20     -0.3749   5.4493  -1.4858   C.3       1 RES1   0.0000
    36 C21      0.4896   4.4986  -0.7450   C.2       1 RES1   0.0000
    37 C22      1.1554  -0.3193   2.7751   C.ar      1 RES1   0.0000
    38 C23     -0.0131  -0.9774   2.3566   C.ar      1 RES1   0.0000
    39 C24     -0.5303  -2.0220   3.0847   C.ar      1 RES1   0.0000
    40 C25      0.0580  -2.4016   4.2086   C.ar      1 RES1   0.0000
    41 C26      1.2216  -1.8019   4.6709   C.ar      1 RES1   0.0000
    42 C27      1.7140  -0.7198   3.9541   C.ar      1 RES1   0.0000
    43 C28      4.3817   6.8441  -2.0753   C.ar      1 RES1   0.0000
    44 C29      5.5284   6.7325  -2.8415   C.ar      1 RES1   0.0000
    45 C30      6.0240   7.8306  -3.5215   C.ar      1 RES1   0.0000
    46 C31      5.3801   9.0470  -3.4721   C.ar      1 RES1   0.0000
    47 C32      4.2281   9.1543  -2.7044   C.ar      1 RES1   0.0000
    48 C33      3.7839   8.0607  -2.0117   C.ar      1 RES1   0.0000
    49 C34      9.4805   2.6004   5.9644   C.3       2 RES2   0.0000
    50 Cl1     10.0720   2.5067   4.3669   Cl        2 RES2   0.0000
    51 Cl2      8.0392   3.5737   5.9927   Cl        2 RES2   0.0000
    52 Cl3      8.9051   1.1046   6.5638   Cl        2 RES2   0.0000
    53 C35     11.2356   9.4883   5.6887   C.3       3 RES3   0.0000
    54 Cl4     12.8073   9.5516   4.9508   Cl        3 RES3   0.0000
    55 Cl5     11.2379  10.7909   6.6939   Cl        3 RES3   0.0000
    56 Cl6     11.5878   8.0382   6.1482   Cl        3 RES3   0.0000
@<TRIPOS>BOND
     1     1     8    1
     2     2     8    1
     3     3    10    1
     4     4    12    1
     5     5     9    1
     6     6    11    1
     7     7    13    1
     8     8    16    2
     9     9     1    1
    10    10     1    1
    11    11     1    1
    12    12     1    1
    13    13     1    1
    14    14     2    1
    15    15     5    1
    16    16    17    1
    17    17    18    1
    18    18    19    1
    19    19    20    1
    20    20    21    1
    21    21    22    1
    22    22     9    2
    23    23    10    2
    24    24    23    1
    25    25    24    1
    26    26    25    1
    27    27    26    1
    28    28    27    1
    29    29    11    2
    30    30    12    2
    31    31    30    1
    32    32    31    1
    33    33    32    1
    34    34    33    1
    35    35    34    1
    36    36    13    2
    37    37    14    1
    38    38    37   ar
    39    39    38   ar
    40    40    39   ar
    41    41    40   ar
    42    42    37   ar
    43    43    15    1
    44    44    43   ar
    45    45    44   ar
    46    46    45   ar
    47    47    46   ar
    48    48    43   ar
    49     3    14    1
    50     4    14    1
    51     6    15    1
    52     7    15    1
    53    16    22    1
    54    23    29    1
    55    28    29    1
    56    30    36    1
    57    35    36    1
    58    41    42   ar
    59    47    48   ar
    60    49    50    1
    61    51    49    1
    62    52    49    1
    63    53    54    1
    64    55    53    1
    65    56    53    1
@<TRIPOS>SUBSTRUCTURE
     1 RES1        1 GROUP             0 ****  ****    0  
     2 RES2       49 GROUP             0 ****  ****    0  
     3 RES3       53 GROUP             0 ****  ****    0  
@<TRIPOS>CRYSIN
   10.2900   15.9430   14.9900   73.6500   75.2500   72.1900     2     1
