@<TRIPOS>MOLECULE
ZAVRUM
    85    92     5     0     0
SMALL
USER_CHARGES
****
Generated from the CSD

@<TRIPOS>ATOM
     1 Fe1      8.6124   4.6355   2.1863   Fe        1 RES1   2.0000
     2 N1       9.9158   4.0721   3.5355   N.2       1 RES1   0.0000
     3 N2       9.9768   2.6964   3.6861   N.pl3     1 RES1   0.0000
     4 N3       8.3980   2.7494   2.0853   N.ar      1 RES1   0.0000
     5 N4       7.2183   4.5497   0.7817   N.2       1 RES1   0.0000
     6 N5       5.9986   3.2363  -0.5482   N.pl3     1 RES1   0.0000
     7 H1       5.7644   2.5427  -0.9185   H         1 RES1   0.0000
     8 N6       7.3069   5.0450   3.5975   N.2       1 RES1   0.0000
     9 N7       7.2329   6.4001   3.8770   N.pl3     1 RES1   0.0000
    10 N8       8.7993   6.5223   2.2661   N.ar      1 RES1   0.0000
    11 N9       9.9976   4.8824   0.7900   N.2       1 RES1   0.0000
    12 N10     11.1826   6.3290  -0.4191   N.pl3     1 RES1   0.0000
    13 H2      11.3744   7.0545  -0.6576   H         1 RES1   0.0000
    14 C1      10.7465   4.5405   4.4566   C.2       1 RES1   0.0000
    15 H3      10.9283   5.4639   4.5901   H         1 RES1   0.0000
    16 C2      11.3280   3.5087   5.2098   C.2       1 RES1   0.0000
    17 H4      11.9474   3.5980   5.9250   H         1 RES1   0.0000
    18 C3      10.8185   2.3544   4.7025   C.2       1 RES1   0.0000
    19 H5      11.0124   1.4740   5.0022   H         1 RES1   0.0000
    20 C4       9.1407   1.9514   2.8417   C.ar      1 RES1   0.0000
    21 C5       9.0549   0.5611   2.7830   C.ar      1 RES1   0.0000
    22 H6       9.5936   0.0057   3.3341   H         1 RES1   0.0000
    23 C6       8.1542   0.0306   1.8913   C.ar      1 RES1   0.0000
    24 H7       8.0701  -0.9138   1.8194   H         1 RES1   0.0000
    25 C7       7.3616   0.8551   1.0857   C.ar      1 RES1   0.0000
    26 H8       6.7354   0.4837   0.4757   H         1 RES1   0.0000
    27 C8       7.5126   2.2129   1.2023   C.ar      1 RES1   0.0000
    28 C9       6.8709   3.2973   0.4662   C.2       1 RES1   0.0000
    29 C10      5.7507   4.5451  -0.9500   C.ar      1 RES1   0.0000
    30 C11      6.5132   5.3553  -0.1015   C.ar      1 RES1   0.0000
    31 C12      6.4575   6.7450  -0.2291   C.ar      1 RES1   0.0000
    32 H9       6.9550   7.3145   0.3463   H         1 RES1   0.0000
    33 C13      5.6546   7.2541  -1.2196   C.ar      1 RES1   0.0000
    34 H10      5.5945   8.1959  -1.3240   H         1 RES1   0.0000
    35 C14      4.9169   6.4256  -2.0866   C.ar      1 RES1   0.0000
    36 H11      4.3885   6.8194  -2.7707   H         1 RES1   0.0000
    37 C15      4.9478   5.0550  -1.9603   C.ar      1 RES1   0.0000
    38 H12      4.4451   4.4889  -2.5340   H         1 RES1   0.0000
    39 C16      6.4818   4.4662   4.4562   C.2       1 RES1   0.0000
    40 H13      6.3134   3.5330   4.5024   H         1 RES1   0.0000
    41 C17      5.8879   5.4333   5.2931   C.2       1 RES1   0.0000
    42 H14      5.2703   5.2727   5.9952   H         1 RES1   0.0000
    43 C18      6.3786   6.6473   4.8935   C.2       1 RES1   0.0000
    44 H15      6.1607   7.4962   5.2587   H         1 RES1   0.0000
    45 C19      8.0461   7.2383   3.1019   C.ar      1 RES1   0.0000
    46 C20      8.0770   8.6155   3.1366   C.ar      1 RES1   0.0000
    47 H16      7.5349   9.1040   3.7440   H         1 RES1   0.0000
    48 C21      8.9194   9.2581   2.2600   C.ar      1 RES1   0.0000
    49 H17      8.9605  10.2071   2.2600   H         1 RES1   0.0000
    50 C22      9.7154   8.5335   1.3685   C.ar      1 RES1   0.0000
    51 H18     10.2935   8.9759   0.7584   H         1 RES1   0.0000
    52 C23      9.6348   7.1616   1.4042   C.ar      1 RES1   0.0000
    53 C24     10.3038   6.1673   0.5811   C.2       1 RES1   0.0000
    54 C25     10.7418   4.1725  -0.1464   C.ar      1 RES1   0.0000
    55 C26     11.4756   5.0762  -0.9288   C.ar      1 RES1   0.0000
    56 C27     12.3214   4.6744  -1.9524   C.ar      1 RES1   0.0000
    57 H19     12.8137   5.2995  -2.4704   H         1 RES1   0.0000
    58 C28     12.4071   3.3112  -2.1749   C.ar      1 RES1   0.0000
    59 H20     12.9613   2.9862  -2.8737   H         1 RES1   0.0000
    60 C29     11.6900   2.4031  -1.3851   C.ar      1 RES1   0.0000
    61 H21     11.7810   1.4740  -1.5629   H         1 RES1   0.0000
    62 C30     10.8614   2.8016  -0.3669   C.ar      1 RES1   0.0000
    63 H22     10.3896   2.1699   0.1644   H         1 RES1   0.0000
    64 B1      12.2390   8.5782  -2.8036   B         2 RES2  -1.0000
    65 F1      12.2172   9.8391  -3.3384   F         2 RES2   0.0000
    66 F2      11.0590   7.9225  -3.0888   F         2 RES2   0.0000
    67 F3      12.3437   8.6656  -1.4117   F         2 RES2   0.0000
    68 F4      13.3039   7.8477  -3.2819   F         2 RES2   0.0000
    69 B2       4.5480   1.0247  -3.0491   B         3 RES3  -1.0000
    70 F5       3.8944   2.2177  -3.2687   F         3 RES3   0.0000
    71 F6       5.0679   0.9419  -1.7674   F         3 RES3   0.0000
    72 F7       3.6791  -0.0008  -3.2210   F         3 RES3   0.0000
    73 F8       5.5098   0.8414  -3.9958   F         3 RES3   0.0000
    74 N11      8.6105   3.0283  -3.3450   N.1       4 RES4   0.0000
    75 C31      8.6191   4.1505  -3.2858   C.1       4 RES4   0.0000
    76 C32      8.6037   5.5786  -3.1938   C.3       4 RES4   0.0000
    77 H23      7.9638   5.8539  -2.5055   H         4 RES4   0.0000
    78 H24      8.3361   5.9591  -4.0574   H         4 RES4   0.0000
    79 H25      9.4975   5.8998  -2.9570   H         4 RES4   0.0000
    80 N12      1.0002  -1.4587  -5.2920   N.1       5 RES5   0.0000
    81 C33      1.5406  -0.4799  -5.5388   C.1       5 RES5   0.0000
    82 C34      2.1702   0.7857  -5.8768   C.3       5 RES5   0.0000
    83 H26      1.5595   1.3191  -6.4248   H         5 RES5   0.0000
    84 H27      2.9954   0.6175  -6.3766   H         5 RES5   0.0000
    85 H28      2.3830   1.2752  -5.0548   H         5 RES5   0.0000
@<TRIPOS>BOND
     1     1     2    1
     2     2     3    1
     3     3    18    1
     4     4     1    1
     5     5     1    1
     6     6     7    1
     7     8     1    1
     8     9     8    1
     9    10     1    1
    10    11     1    1
    11    12    13    1
    12    14     2    2
    13    15    14    1
    14    16    14    1
    15    17    16    1
    16    18    16    2
    17    19    18    1
    18    20     3    1
    19    21    20   ar
    20    22    21    1
    21    23    21   ar
    22    24    23    1
    23    25    23   ar
    24    26    25    1
    25    27     4   ar
    26    28     5    2
    27    29     6    1
    28    30     5    1
    29    31    30   ar
    30    32    31    1
    31    33    31   ar
    32    34    33    1
    33    35    33   ar
    34    36    35    1
    35    37    29   ar
    36    38    37    1
    37    39     8    2
    38    40    39    1
    39    41    39    1
    40    42    41    1
    41    43     9    1
    42    44    43    1
    43    45     9    1
    44    46    45   ar
    45    47    46    1
    46    48    46   ar
    47    49    48    1
    48    50    48   ar
    49    51    50    1
    50    52    10   ar
    51    53    11    2
    52    54    11    1
    53    55    12    1
    54    56    55   ar
    55    57    56    1
    56    58    56   ar
    57    59    58    1
    58    60    58   ar
    59    61    60    1
    60    62    54   ar
    61    63    62    1
    62     4    20   ar
    63     6    28    1
    64    10    45   ar
    65    12    53    1
    66    25    27   ar
    67    27    28    1
    68    29    30   ar
    69    35    37   ar
    70    41    43    2
    71    50    52   ar
    72    52    53    1
    73    54    55   ar
    74    60    62   ar
    75    64    65    1
    76    66    64    1
    77    67    64    1
    78    68    64    1
    79    69    70    1
    80    71    69    1
    81    72    69    1
    82    73    69    1
    83    74    75    3
    84    75    76    1
    85    76    77    1
    86    78    76    1
    87    79    76    1
    88    80    81    3
    89    81    82    1
    90    82    83    1
    91    84    82    1
    92    85    82    1
@<TRIPOS>SUBSTRUCTURE
     1 RES1        1 GROUP             0 ****  ****    0  
     2 RES2       64 GROUP             0 ****  ****    0  
     3 RES3       69 GROUP             0 ****  ****    0  
     4 RES4       74 GROUP             0 ****  ****    0  
     5 RES5       80 GROUP             0 ****  ****    0  
@<TRIPOS>CRYSIN
   17.1559   19.1180   21.9202   90.0000   90.0000   90.0000    61     1
