@<TRIPOS>MOLECULE
ZAXCOQ
    93   100     2     0     0
SMALL
NO_CHARGES
****
Generated from the CSD

@<TRIPOS>ATOM
     1 Fe1      0.0000   2.4820   4.0528   Fe        1 RES1   0.0000
     2 N1       1.8828   2.3835   4.1289   N.2       1 RES1   0.0000
     3 N2       0.3631   2.4264   2.2047   N.2       1 RES1   0.0000
     4 O1       2.5926   2.2055   5.2896   O.3       1 RES1   0.0000
     5 O2      -0.5962   2.3311   1.2337   O.3       1 RES1   0.0000
     6 B1       1.9755   2.8507   6.5509   B         1 RES1   0.0000
     7 C1       2.4985   2.2739   2.9990   C.2       1 RES1   0.0000
     8 C2       1.6034   2.2580   1.8448   C.2       1 RES1   0.0000
     9 C3       3.9763   2.1483   2.8807   C.3       1 RES1   0.0000
    10 C4       2.0442   2.0800   0.4555   C.3       1 RES1   0.0000
    11 C5       0.0000   4.2681   4.0528   C.1       1 RES1   0.0000
    12 O3       0.0000   5.4137   4.0528   O.2       1 RES1   0.0000
    13 N3       0.0000   0.4163   4.0528   N.ar      1 RES1   0.0000
    14 C6       0.6680  -0.2701   4.9816   C.ar      1 RES1   0.0000
    15 C7       0.6844  -1.6398   4.9979   C.ar      1 RES1   0.0000
    16 C8       0.0000  -2.3231   4.0528   C.ar      1 RES1   0.0000
    17 C9       2.9378   5.0880   5.5506   C.ar      1 RES1   0.0000
    18 C10      2.0532   4.4540   6.4163   C.ar      1 RES1   0.0000
    19 C11      1.3837   5.2437   7.3144   C.ar      1 RES1   0.0000
    20 C12      1.5451   6.6182   7.3436   C.ar      1 RES1   0.0000
    21 C13      2.4312   7.2061   6.4666   C.ar      1 RES1   0.0000
    22 C14      3.1052   6.4577   5.5896   C.ar      1 RES1   0.0000
    23 C15      2.3610   1.8130   8.9323   C.ar      1 RES1   0.0000
    24 C16      3.1545   1.4937  10.0006   C.ar      1 RES1   0.0000
    25 C17      4.5098   1.6986   9.9519   C.ar      1 RES1   0.0000
    26 C18      5.0418   2.2055   8.8415   C.ar      1 RES1   0.0000
    27 C19      4.2602   2.5297   7.7748   C.ar      1 RES1   0.0000
    28 C20      2.9019   2.3470   7.7634   C.ar      1 RES1   0.0000
    29 H1       4.3723   2.2055   3.7545   H         1 RES1   0.0000
    30 H2       4.1512   1.2823   2.5062   H         1 RES1   0.0000
    31 H3       4.3544   2.8252   2.3133   H         1 RES1   0.0000
    32 H4       1.2791   2.0975  -0.1232   H         1 RES1   0.0000
    33 H5       2.6449   2.7903   0.2140   H         1 RES1   0.0000
    34 H6       2.4940   1.2362   0.3647   H         1 RES1   0.0000
    35 H7       1.1342   0.2304   5.6560   H         1 RES1   0.0000
    36 H8       1.1880  -2.1213   5.6593   H         1 RES1   0.0000
    37 H9       0.0000  -3.2845   4.0528   H         1 RES1   0.0000
    38 H10      3.4369   4.5684   4.9168   H         1 RES1   0.0000
    39 H11      0.7785   4.8321   7.9369   H         1 RES1   0.0000
    40 H12      1.0445   7.1537   7.9645   H         1 RES1   0.0000
    41 H13      2.5702   8.1547   6.4957   H         1 RES1   0.0000
    42 H14      3.7133   6.8804   4.9800   H         1 RES1   0.0000
    43 H15      1.4121   1.6875   8.9971   H         1 RES1   0.0000
    44 H16      2.7615   1.0964  10.7803   H         1 RES1   0.0000
    45 H17      5.0612   1.4968  10.7106   H         1 RES1   0.0000
    46 H18      5.9921   2.3390   8.7961   H         1 RES1   0.0000
    47 H19      4.6816   2.8999   6.9950   H         1 RES1   0.0000
    48 N1C     -1.8828   2.3835   3.9766   N.2       1 RES1   0.0000
    49 N2C     -0.3631   2.4264   5.9008   N.2       1 RES1   0.0000
    50 B1C     -1.9755   2.8507   1.5546   B         1 RES1   0.0000
    51 O2C      0.5962   2.3311   6.8718   O.3       1 RES1   0.0000
    52 C6C     -0.6680  -0.2701   3.1239   C.ar      1 RES1   0.0000
    53 C7C     -0.6844  -1.6398   3.1076   C.ar      1 RES1   0.0000
    54 O1C     -2.5926   2.2055   2.8159   O.3       1 RES1   0.0000
    55 C1C     -2.4985   2.2739   5.1065   C.2       1 RES1   0.0000
    56 C2C     -1.6034   2.2580   6.2607   C.2       1 RES1   0.0000
    57 C10C    -2.0532   4.4540   1.6892   C.ar      1 RES1   0.0000
    58 C20C    -2.9019   2.3470   0.3421   C.ar      1 RES1   0.0000
    59 H7C     -1.1342   0.2304   2.4495   H         1 RES1   0.0000
    60 H8C     -1.1880  -2.1213   2.4462   H         1 RES1   0.0000
    61 C3C     -3.9763   2.1483   5.2248   C.3       1 RES1   0.0000
    62 C4C     -2.0442   2.0800   7.6500   C.3       1 RES1   0.0000
    63 C9C     -2.9378   5.0880   2.5549   C.ar      1 RES1   0.0000
    64 C11C    -1.3837   5.2437   0.7911   C.ar      1 RES1   0.0000
    65 C15C    -2.3610   1.8130  -0.8268   C.ar      1 RES1   0.0000
    66 C19C    -4.2602   2.5297   0.3307   C.ar      1 RES1   0.0000
    67 H1C     -4.3723   2.2055   4.3510   H         1 RES1   0.0000
    68 H2C     -4.1512   1.2823   5.5993   H         1 RES1   0.0000
    69 H3C     -4.3544   2.8252   5.7922   H         1 RES1   0.0000
    70 H4C     -1.2791   2.0975   8.2287   H         1 RES1   0.0000
    71 H5C     -2.6449   2.7903   7.8915   H         1 RES1   0.0000
    72 H6C     -2.4940   1.2362   7.7408   H         1 RES1   0.0000
    73 C14C    -3.1052   6.4577   2.5159   C.ar      1 RES1   0.0000
    74 H10C    -3.4369   4.5684   3.1887   H         1 RES1   0.0000
    75 C12C    -1.5451   6.6182   0.7619   C.ar      1 RES1   0.0000
    76 H11C    -0.7785   4.8321   0.1686   H         1 RES1   0.0000
    77 C16C    -3.1545   1.4937  -1.8951   C.ar      1 RES1   0.0000
    78 H15C    -1.4121   1.6875  -0.8916   H         1 RES1   0.0000
    79 C18C    -5.0418   2.2055  -0.7360   C.ar      1 RES1   0.0000
    80 H19C    -4.6816   2.8999   1.1105   H         1 RES1   0.0000
    81 C13C    -2.4312   7.2061   1.6389   C.ar      1 RES1   0.0000
    82 H14C    -3.7133   6.8804   3.1255   H         1 RES1   0.0000
    83 H12C    -1.0445   7.1537   0.1410   H         1 RES1   0.0000
    84 C17C    -4.5098   1.6986  -1.8464   C.ar      1 RES1   0.0000
    85 H16C    -2.7615   1.0964  -2.6748   H         1 RES1   0.0000
    86 H18C    -5.9921   2.3390  -0.6906   H         1 RES1   0.0000
    87 H13C    -2.5702   8.1547   1.6098   H         1 RES1   0.0000
    88 H17C    -5.0612   1.4968  -2.6051   H         1 RES1   0.0000
    89 C21     -0.0000  -7.0059   4.0528   C.3       2 RES2   0.0000
    90 Cl1      0.0837  -6.0287   5.4696   Cl        2 RES2   0.0000
    91 H20      0.7576  -7.3332   4.2765   H         2 RES2   0.0000
    92 Cl1C    -0.0837  -6.0287   2.6359   Cl        2 RES2   0.0000
    93 H20C    -0.7576  -7.3332   3.8290   H         2 RES2   0.0000
@<TRIPOS>BOND
     1     1     2    1
     2     2     4    1
     3     3     1    1
     4     4     6    1
     5     5     3    1
     6     6    18    1
     7     7     2    2
     8     8     3    2
     9     9     7    1
    10    10     8    1
    11    11     1    1
    12    12    11    3
    13    13     1    1
    14    14    13   ar
    15    15    14   ar
    16    16    15   ar
    17    17    18   ar
    18    18    19   ar
    19    19    20   ar
    20    20    21   ar
    21    21    22   ar
    22    22    17   ar
    23    23    24   ar
    24    24    25   ar
    25    25    26   ar
    26    26    27   ar
    27    27    28   ar
    28    28     6    1
    29    29     9    1
    30    30     9    1
    31    31     9    1
    32    32    10    1
    33    33    10    1
    34    34    10    1
    35    35    14    1
    36    36    15    1
    37    37    16    1
    38    38    17    1
    39    39    19    1
    40    40    20    1
    41    41    21    1
    42    42    22    1
    43    43    23    1
    44    44    24    1
    45    45    25    1
    46    46    26    1
    47    47    27    1
    48    48     1    1
    49    49     1    1
    50    50     5    1
    51    51     6    1
    52    52    13   ar
    53    53    16   ar
    54    54    48    1
    55    55    48    2
    56    56    49    2
    57    57    50    1
    58    58    50    1
    59    59    52    1
    60    60    53    1
    61    61    55    1
    62    62    56    1
    63    63    57   ar
    64    64    57   ar
    65    65    58   ar
    66    66    58   ar
    67    67    61    1
    68    68    61    1
    69    69    61    1
    70    70    62    1
    71    71    62    1
    72    72    62    1
    73    73    63   ar
    74    74    63    1
    75    75    64   ar
    76    76    64    1
    77    77    65   ar
    78    78    65    1
    79    79    66   ar
    80    80    66    1
    81    81    73   ar
    82    82    73    1
    83    83    75    1
    84    84    77   ar
    85    85    77    1
    86    86    79    1
    87    87    81    1
    88    88    84    1
    89     7     8    1
    90    23    28   ar
    91    49    51    1
    92    50    54    1
    93    52    53   ar
    94    55    56    1
    95    75    81   ar
    96    79    84   ar
    97    89    90    1
    98    91    89    1
    99    92    89    1
   100    93    89    1
@<TRIPOS>SUBSTRUCTURE
     1 RES1        1 GROUP             0 ****  ****    0  
     2 RES2       89 GROUP             0 ****  ****    0  
@<TRIPOS>CRYSIN
   14.9430   15.8900   16.2110   90.0000   90.0000   90.0000    60     1
