@<TRIPOS>MOLECULE
ZAXCEG
    88    96     1     0     0
SMALL
NO_CHARGES
****
Generated from the CSD

@<TRIPOS>ATOM
     1 Fe1      2.9068   2.9970  -0.6459   Fe        1 RES1   0.0000
     2 N1       1.0800   3.0146  -0.1668   N.2       1 RES1   0.0000
     3 N2       2.1511   3.2448  -2.3646   N.2       1 RES1   0.0000
     4 N3       4.7360   3.0439  -1.1392   N.2       1 RES1   0.0000
     5 N4       3.6715   2.9190   1.0770   N.2       1 RES1   0.0000
     6 O1       0.6388   3.0927   1.1321   O.3       1 RES1   0.0000
     7 O2       2.8933   3.5492  -3.4742   O.3       1 RES1   0.0000
     8 O3       5.1911   3.2741  -2.4141   O.3       1 RES1   0.0000
     9 O4       2.9359   3.0185   2.2360   O.3       1 RES1   0.0000
    10 B1       1.4906   2.4585   2.2558   B         1 RES1   0.0000
    11 B2       4.2976   2.9248  -3.5901   B         1 RES1   0.0000
    12 C1       0.2214   3.1883  -1.1039   C.2       1 RES1   0.0000
    13 C2       0.8611   3.3268  -2.4410   C.2       1 RES1   0.0000
    14 C3       5.5928   2.9834  -0.1724   C.2       1 RES1   0.0000
    15 C4       4.9583   2.9209   1.1661   C.2       1 RES1   0.0000
    16 C5      -1.2460   3.3151  -0.9003   C.3       1 RES1   0.0000
    17 C6       0.1026   3.5765  -3.6904   C.3       1 RES1   0.0000
    18 C7       7.0826   2.9853  -0.4014   C.3       1 RES1   0.0000
    19 C8       5.7123   2.8936   2.4396   C.3       1 RES1   0.0000
    20 N5       2.9090   5.0595  -0.4933   N.ar      1 RES1   0.0000
    21 C9       2.0558   5.7229   0.2926   C.ar      1 RES1   0.0000
    22 C10      2.0200   7.0965   0.3647   C.ar      1 RES1   0.0000
    23 C11      2.8762   7.8107  -0.4057   C.ar      1 RES1   0.0000
    24 C12      3.6920   7.1668  -1.2254   C.ar      1 RES1   0.0000
    25 C13      3.7243   5.8165  -1.2594   C.ar      1 RES1   0.0000
    26 C14      2.9682   1.2312  -0.7632   C.1       1 RES1   0.0000
    27 O5       3.0850   0.0917  -0.7760   O.2       1 RES1   0.0000
    28 C15      4.2358   1.3678  -3.9251   C.3       1 RES1   0.0000
    29 C16      5.6995   0.8605  -4.0692   C.3       1 RES1   0.0000
    30 C17      6.5394   1.6371  -5.0855   C.3       1 RES1   0.0000
    31 C18      6.3990   3.1570  -5.0304   C.3       1 RES1   0.0000
    32 C19      4.9471   3.6585  -4.8834   C.3       1 RES1   0.0000
    33 C20      4.0830   3.4107  -6.1159   C.3       1 RES1   0.0000
    34 C21      3.7197   1.9434  -6.3901   C.3       1 RES1   0.0000
    35 C22      3.3498   1.1493  -5.1547   C.3       1 RES1   0.0000
    36 C23      1.3957   0.8936   2.2897   C.3       1 RES1   0.0000
    37 C24      2.2338   0.3727   3.4473   C.3       1 RES1   0.0000
    38 C25      1.9429   0.9912   4.8141   C.3       1 RES1   0.0000
    39 C26      1.7341   2.4839   4.7858   C.3       1 RES1   0.0000
    40 C27      0.8741   3.0263   3.6240   C.3       1 RES1   0.0000
    41 C28     -0.6026   2.6322   3.6961   C.3       1 RES1   0.0000
    42 C29     -0.8954   1.1551   3.4855   C.3       1 RES1   0.0000
    43 C30     -0.0802   0.4780   2.3420   C.3       1 RES1   0.0000
    44 H1      -1.4520   3.1922   0.0297   H         1 RES1   0.0000
    45 H2      -1.5335   4.1873  -1.1788   H         1 RES1   0.0000
    46 H3      -1.7003   2.6458  -1.4191   H         1 RES1   0.0000
    47 H4       0.7126   3.6312  -4.4297   H         1 RES1   0.0000
    48 H5      -0.5158   2.8566  -3.8374   H         1 RES1   0.0000
    49 H6      -0.3810   4.4019  -3.6127   H         1 RES1   0.0000
    50 H7       7.2615   3.0302  -1.3442   H         1 RES1   0.0000
    51 H8       7.4721   3.7444   0.0367   H         1 RES1   0.0000
    52 H9       7.4615   2.1795  -0.0424   H         1 RES1   0.0000
    53 H10      5.0979   2.8527   3.1745   H         1 RES1   0.0000
    54 H11      6.2849   2.1229   2.4565   H         1 RES1   0.0000
    55 H12      6.2462   3.6878   2.5131   H         1 RES1   0.0000
    56 H13      1.4380   5.2195   0.8297   H         1 RES1   0.0000
    57 H14      1.4024   7.5414   0.9498   H         1 RES1   0.0000
    58 H15      2.8902   8.7687  -0.3576   H         1 RES1   0.0000
    59 H16      4.2706   7.6682  -1.8049   H         1 RES1   0.0000
    60 H17      4.3456   5.3814  -1.8488   H         1 RES1   0.0000
    61 H18      3.8328   0.9151  -3.1802   H         1 RES1   0.0000
    62 H19      5.6805  -0.0624  -4.3279   H         1 RES1   0.0000
    63 H20      6.1288   0.9132  -3.2127   H         1 RES1   0.0000
    64 H21      6.2985   1.3444  -5.9675   H         1 RES1   0.0000
    65 H22      7.4639   1.4146  -4.9512   H         1 RES1   0.0000
    66 H23      6.7732   3.5297  -5.8318   H         1 RES1   0.0000
    67 H24      6.9131   3.4868  -4.2883   H         1 RES1   0.0000
    68 H25      4.9697   4.6029  -4.7152   H         1 RES1   0.0000
    69 H26      4.5457   3.7561  -6.8833   H         1 RES1   0.0000
    70 H27      3.2698   3.9122  -6.0212   H         1 RES1   0.0000
    71 H28      4.4654   1.5161  -6.8169   H         1 RES1   0.0000
    72 H29      2.9809   1.9200  -7.0021   H         1 RES1   0.0000
    73 H30      2.4458   1.3639  -4.9173   H         1 RES1   0.0000
    74 H31      3.3722   0.2146  -5.3809   H         1 RES1   0.0000
    75 H32      1.7717   0.5561   1.4728   H         1 RES1   0.0000
    76 H33      3.1596   0.5171   3.2381   H         1 RES1   0.0000
    77 H34      1.8671  -0.5756   3.5123   H         1 RES1   0.0000
    78 H35      2.6775   0.7961   5.4007   H         1 RES1   0.0000
    79 H36      1.1590   0.5776   5.1816   H         1 RES1   0.0000
    80 H37      2.5945   2.9092   4.7477   H         1 RES1   0.0000
    81 H38      1.3211   2.7453   5.6127   H         1 RES1   0.0000
    82 H39      0.9374   3.9844   3.6155   H         1 RES1   0.0000
    83 H40     -1.0833   3.1356   3.0346   H         1 RES1   0.0000
    84 H41     -0.9433   2.8897   4.5569   H         1 RES1   0.0000
    85 H42     -1.8302   1.0536   3.2919   H         1 RES1   0.0000
    86 H43     -0.7185   0.6888   4.3053   H         1 RES1   0.0000
    87 H44     -0.1267  -0.4741   2.4565   H         1 RES1   0.0000
    88 H45     -0.4915   0.6888   1.5011   H         1 RES1   0.0000
@<TRIPOS>BOND
     1     1     2    1
     2     2     6    1
     3     3     1    1
     4     4     1    1
     5     5     1    1
     6     6    10    1
     7     7     3    1
     8     8     4    1
     9     9     5    1
    10    10     9    1
    11    11     7    1
    12    12     2    2
    13    13     3    2
    14    14     4    2
    15    15     5    2
    16    16    12    1
    17    17    13    1
    18    18    14    1
    19    19    15    1
    20    20     1    1
    21    21    20   ar
    22    22    21   ar
    23    23    22   ar
    24    24    23   ar
    25    25    20   ar
    26    26     1    1
    27    27    26    3
    28    28    11    1
    29    29    28    1
    30    30    29    1
    31    31    30    1
    32    32    11    1
    33    33    32    1
    34    34    33    1
    35    35    28    1
    36    36    10    1
    37    37    36    1
    38    38    37    1
    39    39    38    1
    40    40    10    1
    41    41    40    1
    42    42    41    1
    43    43    36    1
    44    44    16    1
    45    45    16    1
    46    46    16    1
    47    47    17    1
    48    48    17    1
    49    49    17    1
    50    50    18    1
    51    51    18    1
    52    52    18    1
    53    53    19    1
    54    54    19    1
    55    55    19    1
    56    56    21    1
    57    57    22    1
    58    58    23    1
    59    59    24    1
    60    60    25    1
    61    61    28    1
    62    62    29    1
    63    63    29    1
    64    64    30    1
    65    65    30    1
    66    66    31    1
    67    67    31    1
    68    68    32    1
    69    69    33    1
    70    70    33    1
    71    71    34    1
    72    72    34    1
    73    73    35    1
    74    74    35    1
    75    75    36    1
    76    76    37    1
    77    77    37    1
    78    78    38    1
    79    79    38    1
    80    80    39    1
    81    81    39    1
    82    82    40    1
    83    83    41    1
    84    84    41    1
    85    85    42    1
    86    86    42    1
    87    87    43    1
    88    88    43    1
    89     8    11    1
    90    12    13    1
    91    14    15    1
    92    24    25   ar
    93    31    32    1
    94    34    35    1
    95    39    40    1
    96    42    43    1
@<TRIPOS>SUBSTRUCTURE
     1 RES1        1 GROUP             0 ****  ****    0  
@<TRIPOS>CRYSIN
   11.6110   19.5120   14.9070   90.0000  108.5300   90.0000   231     1
