@<TRIPOS>MOLECULE
ZAZHAJ
    93    99     1     0     0
SMALL
NO_CHARGES
****
Generated from the CSD

@<TRIPOS>ATOM
     1 Fe1      4.1309  20.1335   2.7920   Fe        1 RES1   0.0000
     2 O1       3.3530  18.8672   1.4999   O.2       1 RES1   0.0000
     3 O2       5.6473  19.9828   1.5222   O.2       1 RES1   0.0000
     4 N1       5.2283  21.8550   3.4833   N.ar      1 RES1   0.0000
     5 C1       4.2358  18.3427   0.6902   C.2       1 RES1   0.0000
     6 C2       5.5222  18.9758   0.6946   C.2       1 RES1   0.0000
     7 C3       6.5638  18.5477  -0.1742   C.2       1 RES1   0.0000
     8 C4       6.2462  17.4744  -0.9660   C.2       1 RES1   0.0000
     9 C5       5.0004  16.8352  -0.9482   C.2       1 RES1   0.0000
    10 C6       3.9709  17.2271  -0.1485   C.2       1 RES1   0.0000
    11 C7       7.9309  19.2320  -0.1619   C.3       1 RES1   0.0000
    12 C8       8.5589  19.0632   1.2363   C.3       1 RES1   0.0000
    13 C9       8.8719  18.5838  -1.1704   C.3       1 RES1   0.0000
    14 C10      7.7917  20.7033  -0.5037   C.3       1 RES1   0.0000
    15 C11      2.6199  16.5186  -0.1061   C.3       1 RES1   0.0000
    16 C12      2.5641  15.3278  -1.0621   C.3       1 RES1   0.0000
    17 C13      2.3392  16.0121   1.3100   C.3       1 RES1   0.0000
    18 C14      1.5094  17.4924  -0.5294   C.3       1 RES1   0.0000
    19 C15      6.3957  21.7555   4.1042   C.ar      1 RES1   0.0000
    20 C16      7.1535  22.8499   4.4192   C.ar      1 RES1   0.0000
    21 C17      6.6546  24.0830   4.0886   C.ar      1 RES1   0.0000
    22 C18      5.5023  24.1795   3.4442   C.ar      1 RES1   0.0000
    23 C19      4.7696  23.0610   3.1550   C.ar      1 RES1   0.0000
    24 H1       6.9169  17.1397  -1.5669   H         1 RES1   0.0000
    25 H2       4.8654  16.0815  -1.5289   H         1 RES1   0.0000
    26 H3       9.4203  19.4943   1.2530   H         1 RES1   0.0000
    27 H4       7.9870  19.4672   1.8952   H         1 RES1   0.0000
    28 H5       8.6642  18.1286   1.4295   H         1 RES1   0.0000
    29 H6       8.5064  18.6743  -2.0538   H         1 RES1   0.0000
    30 H7       9.7291  19.0180  -1.1324   H         1 RES1   0.0000
    31 H8       8.9751  17.6553  -0.9582   H         1 RES1   0.0000
    32 H9       7.3989  20.7938  -1.3748   H         1 RES1   0.0000
    33 H10      7.2283  21.1284   0.1485   H         1 RES1   0.0000
    34 H11      8.6593  21.1164  -0.4981   H         1 RES1   0.0000
    35 H12      3.2478  14.6946  -0.8264   H         1 RES1   0.0000
    36 H13      1.7022  14.9087  -0.9995   H         1 RES1   0.0000
    37 H14      2.7083  15.6323  -1.9611   H         1 RES1   0.0000
    38 H15      3.0335  15.4031   1.5747   H         1 RES1   0.0000
    39 H16      2.3172  16.7538   1.9175   H         1 RES1   0.0000
    40 H17      1.4917  15.5569   1.3268   H         1 RES1   0.0000
    41 H18      1.6857  17.8090  -1.4183   H         1 RES1   0.0000
    42 H19      0.6619  17.0372  -0.5126   H         1 RES1   0.0000
    43 H20      1.4873  18.2341   0.0782   H         1 RES1   0.0000
    44 H21      6.7191  20.8842   4.3455   H         1 RES1   0.0000
    45 H22      8.0059  22.7595   4.8514   H         1 RES1   0.0000
    46 H23      7.1391  24.8759   4.3298   H         1 RES1   0.0000
    47 H24      5.1808  25.0448   3.1728   H         1 RES1   0.0000
    48 O1A      4.9089  18.8672   4.0841   O.3       1 RES1   0.0000
    49 O2A      2.6146  19.9828   4.0618   O.3       1 RES1   0.0000
    50 N1A      3.0335  21.8550   2.1007   N.ar      1 RES1   0.0000
    51 C19A     3.4923  23.0610   2.4290   C.ar      1 RES1   0.0000
    52 C1A      4.0261  18.3427   4.8938   C.ar      1 RES1   0.0000
    53 C2A      2.7397  18.9758   4.8893   C.ar      1 RES1   0.0000
    54 C15A     1.8662  21.7555   1.4798   C.ar      1 RES1   0.0000
    55 C18A     2.7595  24.1795   2.1398   C.ar      1 RES1   0.0000
    56 C6A      4.2910  17.2271   5.7325   C.ar      1 RES1   0.0000
    57 C3A      1.6981  18.5477   5.7582   C.ar      1 RES1   0.0000
    58 C16A     1.1084  22.8499   1.1648   C.ar      1 RES1   0.0000
    59 H21A     1.5428  20.8842   1.2385   H         1 RES1   0.0000
    60 C17A     1.6072  24.0830   1.4954   C.ar      1 RES1   0.0000
    61 H24A     3.0811  25.0448   2.4112   H         1 RES1   0.0000
    62 C5A      3.2615  16.8352   6.5322   C.ar      1 RES1   0.0000
    63 C11A     5.6420  16.5186   5.6901   C.3       1 RES1   0.0000
    64 C4A      2.0157  17.4744   6.5500   C.ar      1 RES1   0.0000
    65 C7A      0.3309  19.2320   5.7459   C.3       1 RES1   0.0000
    66 H22A     0.2560  22.7595   0.7326   H         1 RES1   0.0000
    67 H23A     1.1228  24.8759   1.2542   H         1 RES1   0.0000
    68 H2A      3.3965  16.0815   7.1129   H         1 RES1   0.0000
    69 C12A     5.6978  15.3278   6.6461   C.3       1 RES1   0.0000
    70 C13A     5.9226  16.0121   4.2740   C.3       1 RES1   0.0000
    71 C14A     6.7525  17.4924   6.1134   C.3       1 RES1   0.0000
    72 H1A      1.3449  17.1397   7.1509   H         1 RES1   0.0000
    73 C8A     -0.2970  19.0632   4.3477   C.3       1 RES1   0.0000
    74 C9A     -0.6101  18.5838   6.7544   C.3       1 RES1   0.0000
    75 C10A     0.4701  20.7033   6.0877   C.3       1 RES1   0.0000
    76 H12A     5.0140  14.6946   6.4104   H         1 RES1   0.0000
    77 H13A     6.5597  14.9087   6.5835   H         1 RES1   0.0000
    78 H14A     5.5536  15.6323   7.5451   H         1 RES1   0.0000
    79 H15A     5.2284  15.4031   4.0093   H         1 RES1   0.0000
    80 H16A     5.9447  16.7538   3.6665   H         1 RES1   0.0000
    81 H17A     6.7701  15.5569   4.2572   H         1 RES1   0.0000
    82 H18A     6.5762  17.8090   7.0023   H         1 RES1   0.0000
    83 H19A     7.6000  17.0372   6.0966   H         1 RES1   0.0000
    84 H20A     6.7745  18.2341   5.5058   H         1 RES1   0.0000
    85 H3A     -1.1584  19.4943   4.3309   H         1 RES1   0.0000
    86 H4A      0.2749  19.4672   3.6888   H         1 RES1   0.0000
    87 H5A     -0.4023  18.1286   4.1545   H         1 RES1   0.0000
    88 H6A     -0.2445  18.6743   7.6378   H         1 RES1   0.0000
    89 H7A     -1.4672  19.0180   6.7164   H         1 RES1   0.0000
    90 H8A     -0.7132  17.6553   6.5422   H         1 RES1   0.0000
    91 H9A      0.8629  20.7938   6.9588   H         1 RES1   0.0000
    92 H10A     1.0335  21.1284   5.4355   H         1 RES1   0.0000
    93 H11A    -0.3974  21.1164   6.0821   H         1 RES1   0.0000
@<TRIPOS>BOND
     1     1     2    1
     2     2     5   un
     3     3     1    1
     4     4     1    1
     5     5     6   un
     6     6     3   un
     7     7     6    1
     8     8     7    2
     9     9     8    1
    10    10     5    1
    11    11     7    1
    12    12    11    1
    13    13    11    1
    14    14    11    1
    15    15    10    1
    16    16    15    1
    17    17    15    1
    18    18    15    1
    19    19     4   ar
    20    20    19   ar
    21    21    20   ar
    22    22    21   ar
    23    23     4   ar
    24    24     8    1
    25    25     9    1
    26    26    12    1
    27    27    12    1
    28    28    12    1
    29    29    13    1
    30    30    13    1
    31    31    13    1
    32    32    14    1
    33    33    14    1
    34    34    14    1
    35    35    16    1
    36    36    16    1
    37    37    16    1
    38    38    17    1
    39    39    17    1
    40    40    17    1
    41    41    18    1
    42    42    18    1
    43    43    18    1
    44    44    19    1
    45    45    20    1
    46    46    21    1
    47    47    22    1
    48    48     1    1
    49    49     1    1
    50    50     1    1
    51    51    23    1
    52    52    48    1
    53    53    49    1
    54    54    50   ar
    55    55    51   ar
    56    56    52   ar
    57    57    53   ar
    58    58    54   ar
    59    59    54    1
    60    60    55   ar
    61    61    55    1
    62    62    56   ar
    63    63    56    1
    64    64    57   ar
    65    65    57    1
    66    66    58    1
    67    67    60    1
    68    68    62    1
    69    69    63    1
    70    70    63    1
    71    71    63    1
    72    72    64    1
    73    73    65    1
    74    74    65    1
    75    75    65    1
    76    76    69    1
    77    77    69    1
    78    78    69    1
    79    79    70    1
    80    80    70    1
    81    81    70    1
    82    82    71    1
    83    83    71    1
    84    84    71    1
    85    85    73    1
    86    86    73    1
    87    87    73    1
    88    88    74    1
    89    89    74    1
    90    90    74    1
    91    91    75    1
    92    92    75    1
    93    93    75    1
    94     9    10    2
    95    22    23   ar
    96    50    51   ar
    97    52    53   ar
    98    58    60   ar
    99    62    64   ar
@<TRIPOS>SUBSTRUCTURE
     1 RES1        1 GROUP             0 ****  ****    0  
@<TRIPOS>CRYSIN
   10.8090   30.1490   12.2750   90.0000  114.5200   90.0000    15     1
