@<TRIPOS>MOLECULE
ZAZHIR
   121   123     3     0     0
SMALL
NO_CHARGES
****
Generated from the CSD

@<TRIPOS>ATOM
     1 Fe1      3.4958   2.0472   5.6223   Fe        1 RES1   0.0000
     2 O1       1.6304   1.6772   5.9834   O.2       1 RES1   0.0000
     3 O2       3.7065   1.4960   7.4529   O.2       1 RES1   0.0000
     4 C1       1.3977   1.3014   7.2523   C.2       1 RES1   0.0000
     5 C2       2.5505   1.2271   8.0723   C.2       1 RES1   0.0000
     6 C3       2.4164   0.9077   9.4290   C.2       1 RES1   0.0000
     7 C4       1.1189   0.5824   9.8578   C.2       1 RES1   0.0000
     8 C5      -0.0186   0.6299   9.0628   C.2       1 RES1   0.0000
     9 C6       0.1445   1.0414   7.7613   C.2       1 RES1   0.0000
    10 C7       3.6748   0.8230  10.3167   C.3       1 RES1   0.0000
    11 C8       3.2857   0.5259  11.7737   C.3       1 RES1   0.0000
    12 C9       4.5982  -0.2956   9.8427   C.3       1 RES1   0.0000
    13 C10      4.4049   2.1393  10.3092   C.3       1 RES1   0.0000
    14 C11     -1.3598   0.2956   9.6797   C.3       1 RES1   0.0000
    15 C12     -1.3290  -1.0934  10.3067   C.3       1 RES1   0.0000
    16 C13     -1.6903   1.2345  10.7606   C.3       1 RES1   0.0000
    17 C14     -2.4237   0.2154   8.6691   C.3       1 RES1   0.0000
    18 O3       4.0469   0.2912   4.7220   O.3       1 RES1   0.0000
    19 O4       3.1298   2.4483   3.6362   O.3       1 RES1   0.0000
    20 C15      3.8177   0.2674   3.4456   C.ar      1 RES1   0.0000
    21 C16      3.3189   1.4693   2.8563   C.ar      1 RES1   0.0000
    22 C17      3.0402   1.5435   1.4419   C.ar      1 RES1   0.0000
    23 C18      3.2763   0.3818   0.7799   C.ar      1 RES1   0.0000
    24 C19      3.7773  -0.8512   1.3065   C.ar      1 RES1   0.0000
    25 C20      4.0530  -0.8720   2.6456   C.ar      1 RES1   0.0000
    26 C21      2.5609   2.8137   0.8000   C.3       1 RES1   0.0000
    27 C22      2.3963   2.6399  -0.6996   C.3       1 RES1   0.0000
    28 C23      3.5453   3.9636   1.0307   C.3       1 RES1   0.0000
    29 C24      1.1939   3.1747   1.3692   C.3       1 RES1   0.0000
    30 C25      3.9607  -2.0516   0.4138   C.3       1 RES1   0.0000
    31 C26      4.9044  -1.6936  -0.7322   C.3       1 RES1   0.0000
    32 C27      2.5851  -2.4453  -0.1354   C.3       1 RES1   0.0000
    33 C28      4.5337  -3.2431   1.1460   C.3       1 RES1   0.0000
    34 N1       5.6546   2.5998   5.6323   N.3       1 RES1   0.0000
    35 N2       3.3180   4.2295   5.9608   N.3       1 RES1   0.0000
    36 C29      5.7225   3.9606   6.2342   C.3       1 RES1   0.0000
    37 C30      4.6333   4.8044   5.7276   C.3       1 RES1   0.0000
    38 C31      6.2311   2.6280   4.2706   C.3       1 RES1   0.0000
    39 C32      6.4590   1.6728   6.4348   C.3       1 RES1   0.0000
    40 C33      2.8940   4.4880   7.3375   C.3       1 RES1   0.0000
    41 C34      2.3305   4.8906   5.0731   C.3       1 RES1   0.0000
    42 H1       1.0080   0.3105  10.7706   H         1 RES1   0.0000
    43 H2      -0.6243   1.1454   7.1971   H         1 RES1   0.0000
    44 H3       4.0617   0.4680  12.3354   H         1 RES1   0.0000
    45 H4       2.7211   1.2405  12.0771   H         1 RES1   0.0000
    46 H5       2.8012  -0.3016  11.8088   H         1 RES1   0.0000
    47 H6       5.3830  -0.3461  10.3944   H         1 RES1   0.0000
    48 H7       4.1177  -1.1246   9.8929   H         1 RES1   0.0000
    49 H8       4.8562  -0.1292   8.9324   H         1 RES1   0.0000
    50 H9       5.1926   2.0932  10.8533   H         1 RES1   0.0000
    51 H10      4.6517   2.3651   9.4089   H         1 RES1   0.0000
    52 H11      3.8143   2.8122  10.6552   H         1 RES1   0.0000
    53 H12     -0.6434  -1.0993  10.9787   H         1 RES1   0.0000
    54 H13     -2.1785  -1.2821  10.7129   H         1 RES1   0.0000
    55 H14     -1.1345  -1.7619   9.6446   H         1 RES1   0.0000
    56 H15     -1.7351   2.1274  10.4095   H         1 RES1   0.0000
    57 H16     -2.5301   1.0072  11.1643   H         1 RES1   0.0000
    58 H17     -0.9933   1.1840  11.4201   H         1 RES1   0.0000
    59 H18     -2.4747   1.0711   8.2353   H         1 RES1   0.0000
    60 H19     -2.2226  -0.4605   8.0171   H         1 RES1   0.0000
    61 H20     -3.2666   0.0178   9.0854   H         1 RES1   0.0000
    62 H21      3.0676   0.3833  -0.1580   H         1 RES1   0.0000
    63 H22      4.4001  -1.6683   3.0544   H         1 RES1   0.0000
    64 H23      1.7581   1.9447  -0.8727   H         1 RES1   0.0000
    65 H24      2.0965   3.4585  -1.1034   H         1 RES1   0.0000
    66 H25      3.2464   2.3933  -1.0733   H         1 RES1   0.0000
    67 H26      4.3879   3.7199   0.6420   H         1 RES1   0.0000
    68 H27      3.2356   4.7807   0.6344   H         1 RES1   0.0000
    69 H28      3.6549   4.0869   1.9761   H         1 RES1   0.0000
    70 H29      0.5920   2.4498   1.1836   H         1 RES1   0.0000
    71 H30      1.2735   3.2891   2.3196   H         1 RES1   0.0000
    72 H31      0.8529   3.9829   0.9780   H         1 RES1   0.0000
    73 H32      5.7715  -1.4841  -0.3787   H         1 RES1   0.0000
    74 H33      4.9789  -2.4230  -1.3517   H         1 RES1   0.0000
    75 H34      4.5478  -0.9255  -1.1836   H         1 RES1   0.0000
    76 H35      2.0022  -2.6949   0.5868   H         1 RES1   0.0000
    77 H36      2.2259  -1.6772  -0.5843   H         1 RES1   0.0000
    78 H37      2.6584  -3.1747  -0.7548   H         1 RES1   0.0000
    79 H38      5.4004  -3.0069   1.4846   H         1 RES1   0.0000
    80 H39      3.9587  -3.4793   1.8758   H         1 RES1   0.0000
    81 H40      4.6164  -3.9903   0.5492   H         1 RES1   0.0000
    82 H41      6.5777   4.3558   6.0486   H         1 RES1   0.0000
    83 H42      5.6249   3.8789   7.1871   H         1 RES1   0.0000
    84 H43      4.6752   5.6750   6.1313   H         1 RES1   0.0000
    85 H44      4.7614   4.9084   4.7822   H         1 RES1   0.0000
    86 H45      7.1610   2.8657   4.3032   H         1 RES1   0.0000
    87 H46      6.1390   1.7500   3.8920   H         1 RES1   0.0000
    88 H47      5.7570   3.2624   3.7290   H         1 RES1   0.0000
    89 H48      7.3821   1.9357   6.4172   H         1 RES1   0.0000
    90 H49      6.1382   1.6891   7.3401   H         1 RES1   0.0000
    91 H50      6.3715   0.7844   6.0812   H         1 RES1   0.0000
    92 H51      2.8060   5.4328   7.4905   H         1 RES1   0.0000
    93 H52      2.0467   4.0601   7.4880   H         1 RES1   0.0000
    94 H53      3.5453   4.1255   7.9419   H         1 RES1   0.0000
    95 H54      2.2913   5.8295   5.2687   H         1 RES1   0.0000
    96 H55      2.5994   4.7643   4.1603   H         1 RES1   0.0000
    97 H56      1.4651   4.4984   5.2085   H         1 RES1   0.0000
    98 O5      11.2895   1.5881   4.3885   O.3       2 RES2   0.0000
    99 C35     11.0041   0.2422   4.0901   C.3       2 RES2   0.0000
   100 C36     11.9087  -0.4100   3.1998   C.3       2 RES2   0.0000
   101 C37      9.6672   0.0654   3.8092   C.3       2 RES2   0.0000
   102 H57     11.9853   1.6431   4.8750   H         2 RES2   0.0000
   103 H58     11.1365  -0.2526   4.9026   H         2 RES2   0.0000
   104 H59     12.8132  -0.3045   3.5008   H         2 RES2   0.0000
   105 H60     11.7169  -1.3430   3.0795   H         2 RES2   0.0000
   106 H61     11.7932   0.0490   2.3623   H         2 RES2   0.0000
   107 H62      9.1505   0.4576   4.5164   H         2 RES2   0.0000
   108 H63      9.4972   0.5348   2.9892   H         2 RES2   0.0000
   109 H64      9.4197  -0.8572   3.7064   H         2 RES2   0.0000
   110 O6       7.6484  10.5879   6.6529   O.3       3 RES3   0.0000
   111 C38      6.8486  11.6768   6.1790   C.3       3 RES3   0.0000
   112 C39      6.7435  12.5281   7.3551   C.3       3 RES3   0.0000
   113 C40      7.0888  12.1730   5.0530   C.3       3 RES3   0.0000
   114 H65      7.1989  10.0323   7.1119   H         3 RES3   0.0000
   115 H66      5.9756  11.2906   6.0837   H         3 RES3   0.0000
   116 H67      6.1846  13.2857   7.1670   H         3 RES3   0.0000
   117 H68      6.3705  12.0304   8.0848   H         3 RES3   0.0000
   118 H69      7.6243  12.8296   7.5883   H         3 RES3   0.0000
   119 H70      6.4935  12.8876   4.8148   H         3 RES3   0.0000
   120 H71      7.9916  12.4984   5.0605   H         3 RES3   0.0000
   121 H72      7.0102  11.4644   4.4085   H         3 RES3   0.0000
@<TRIPOS>BOND
     1     1     2    1
     2     2     4   un
     3     3     1    1
     4     4     5   un
     5     5     3   un
     6     6     5    1
     7     7     6    2
     8     8     7    1
     9     9     4    1
    10    10     6    1
    11    11    10    1
    12    12    10    1
    13    13    10    1
    14    14     8    1
    15    15    14    1
    16    16    14    1
    17    17    14    1
    18    18     1    1
    19    19     1    1
    20    20    18    1
    21    21    19    1
    22    22    21   ar
    23    23    22   ar
    24    24    23   ar
    25    25    20   ar
    26    26    22    1
    27    27    26    1
    28    28    26    1
    29    29    26    1
    30    30    24    1
    31    31    30    1
    32    32    30    1
    33    33    30    1
    34    34     1    1
    35    35     1    1
    36    36    34    1
    37    37    35    1
    38    38    34    1
    39    39    34    1
    40    40    35    1
    41    41    35    1
    42    42     7    1
    43    43     9    1
    44    44    11    1
    45    45    11    1
    46    46    11    1
    47    47    12    1
    48    48    12    1
    49    49    12    1
    50    50    13    1
    51    51    13    1
    52    52    13    1
    53    53    15    1
    54    54    15    1
    55    55    15    1
    56    56    16    1
    57    57    16    1
    58    58    16    1
    59    59    17    1
    60    60    17    1
    61    61    17    1
    62    62    23    1
    63    63    25    1
    64    64    27    1
    65    65    27    1
    66    66    27    1
    67    67    28    1
    68    68    28    1
    69    69    28    1
    70    70    29    1
    71    71    29    1
    72    72    29    1
    73    73    31    1
    74    74    31    1
    75    75    31    1
    76    76    32    1
    77    77    32    1
    78    78    32    1
    79    79    33    1
    80    80    33    1
    81    81    33    1
    82    82    36    1
    83    83    36    1
    84    84    37    1
    85    85    37    1
    86    86    38    1
    87    87    38    1
    88    88    38    1
    89    89    39    1
    90    90    39    1
    91    91    39    1
    92    92    40    1
    93    93    40    1
    94    94    40    1
    95    95    41    1
    96    96    41    1
    97    97    41    1
    98     8     9    2
    99    20    21   ar
   100    24    25   ar
   101    36    37    1
   102    98    99    1
   103    99   100    1
   104   100   104    1
   105   101    99    1
   106   102    98    1
   107   103    99    1
   108   105   100    1
   109   106   100    1
   110   107   101    1
   111   108   101    1
   112   109   101    1
   113   110   111    1
   114   111   112    1
   115   112   116    1
   116   113   111    1
   117   114   110    1
   118   115   111    1
   119   117   112    1
   120   118   112    1
   121   119   113    1
   122   120   113    1
   123   121   113    1
@<TRIPOS>SUBSTRUCTURE
     1 RES1        1 GROUP             0 ****  ****    0  
     2 RES2       98 GROUP             0 ****  ****    0  
     3 RES3      110 GROUP             0 ****  ****    0  
@<TRIPOS>CRYSIN
   11.8840   14.8560   25.1150   90.0000   93.1500   90.0000   231     1
