@<TRIPOS>MOLECULE
ZAZHEN
    97   101     1     0     0
SMALL
NO_CHARGES
****
Generated from the CSD

@<TRIPOS>ATOM
     1 Fe1      3.2803   2.5217   4.1281   Fe        1 RES1   0.0000
     2 O1       1.2961   2.2204   4.3934   O.2       1 RES1   0.0000
     3 O2       2.9294   0.8770   3.0212   O.2       1 RES1   0.0000
     4 C1       0.7620   1.3008   3.7149   C.2       1 RES1   0.0000
     5 C2       1.7353   0.5531   2.9132   C.2       1 RES1   0.0000
     6 C3       1.2478  -0.5185   2.1323   C.2       1 RES1   0.0000
     7 C4      -0.0737  -0.7690   2.1683   C.2       1 RES1   0.0000
     8 C5      -1.0061  -0.0520   2.9208   C.2       1 RES1   0.0000
     9 C6      -0.6284   1.0316   3.6997   C.2       1 RES1   0.0000
    10 C7       2.1962  -1.3328   1.2775   C.3       1 RES1   0.0000
    11 C8       2.9565  -0.4345   0.3279   C.3       1 RES1   0.0000
    12 C9       3.1912  -2.0938   2.1057   C.3       1 RES1   0.0000
    13 C10      1.5079  -2.3897   0.4151   C.3       1 RES1   0.0000
    14 C11     -1.5791   1.8646   4.4939   C.3       1 RES1   0.0000
    15 C12     -1.5193   3.3080   4.0163   C.3       1 RES1   0.0000
    16 C13     -1.2726   1.8046   5.9439   C.3       1 RES1   0.0000
    17 C14     -3.0197   1.4141   4.3157   C.3       1 RES1   0.0000
    18 O3       2.9740   3.9917   2.9208   O.3       1 RES1   0.0000
    19 O4       5.0788   2.6789   3.4875   O.3       1 RES1   0.0000
    20 C15      4.0827   4.3383   2.2252   C.ar      1 RES1   0.0000
    21 C16      5.2338   3.5946   2.5549   C.ar      1 RES1   0.0000
    22 C17      6.4294   3.8091   1.8650   C.ar      1 RES1   0.0000
    23 C18      6.4250   4.8314   0.9458   C.ar      1 RES1   0.0000
    24 C19      5.3070   5.5911   0.6558   C.ar      1 RES1   0.0000
    25 C20      4.0774   5.3472   1.2794   C.ar      1 RES1   0.0000
    26 C21      7.6569   2.9641   2.1437   C.3       1 RES1   0.0000
    27 C22      8.0539   2.9975   3.5974   C.3       1 RES1   0.0000
    28 C23      7.3197   1.5527   1.7305   C.3       1 RES1   0.0000
    29 C24      8.8512   3.4080   1.2832   C.3       1 RES1   0.0000
    30 C25      2.8637   6.1202   0.9401   C.3       1 RES1   0.0000
    31 C26      2.2683   6.8306   2.1550   C.3       1 RES1   0.0000
    32 C27      3.0070   7.1518  -0.1478   C.3       1 RES1   0.0000
    33 C28      1.7497   5.1859   0.4227   C.3       1 RES1   0.0000
    34 N1       3.3130   3.8944   5.8870   N.3       1 RES1   0.0000
    35 N2       4.0401   1.1769   5.7392   N.3       1 RES1   0.0000
    36 C29      3.5723   3.1267   7.0962   C.3       1 RES1   0.0000
    37 C30      4.5432   2.0192   6.7987   C.3       1 RES1   0.0000
    38 C31      2.0831   4.6328   6.0348   C.3       1 RES1   0.0000
    39 C32      4.3940   4.8541   5.6539   C.3       1 RES1   0.0000
    40 C33      5.1217   0.2945   5.2558   C.3       1 RES1   0.0000
    41 C34      2.9541   0.2945   6.2225   C.3       1 RES1   0.0000
    42 H1      -0.4033  -1.5287   1.6812   H         1 RES1   0.0000
    43 H2      -1.9363  -0.2812   2.8582   H         1 RES1   0.0000
    44 H3       3.4585   0.1533   0.8946   H         1 RES1   0.0000
    45 H4       3.5530  -0.8876  -0.2729   H         1 RES1   0.0000
    46 H5       2.3201   0.0760  -0.1782   H         1 RES1   0.0000
    47 H6       2.7437  -2.7429   2.6554   H         1 RES1   0.0000
    48 H7       3.8838  -2.5230   1.6016   H         1 RES1   0.0000
    49 H8       3.5750  -1.4141   2.6649   H         1 RES1   0.0000
    50 H9       1.0587  -3.0215   0.9799   H         1 RES1   0.0000
    51 H10      0.8604  -1.8952  -0.0929   H         1 RES1   0.0000
    52 H11      2.0942  -2.8589  -0.1857   H         1 RES1   0.0000
    53 H12     -0.6192   3.6092   4.1603   H         1 RES1   0.0000
    54 H13     -1.7215   3.3467   3.0781   H         1 RES1   0.0000
    55 H14     -2.1266   3.8718   4.4977   H         1 RES1   0.0000
    56 H15     -0.3864   2.1418   6.0955   H         1 RES1   0.0000
    57 H16     -1.8999   2.3057   6.4727   H         1 RES1   0.0000
    58 H17     -1.3101   0.8796   6.1959   H         1 RES1   0.0000
    59 H18     -3.2636   1.4914   3.3908   H         1 RES1   0.0000
    60 H19     -3.0469   0.4905   4.5773   H         1 RES1   0.0000
    61 H20     -3.6367   1.9166   4.8540   H         1 RES1   0.0000
    62 H21      7.2328   4.9967   0.4549   H         1 RES1   0.0000
    63 H22      5.3825   6.3148   0.0284   H         1 RES1   0.0000
    64 H23      7.3190   2.6616   4.1167   H         1 RES1   0.0000
    65 H24      8.8338   2.4643   3.7642   H         1 RES1   0.0000
    66 H25      8.2297   3.9091   3.8457   H         1 RES1   0.0000
    67 H26      6.5826   1.2568   2.2669   H         1 RES1   0.0000
    68 H27      7.0563   1.5740   0.8074   H         1 RES1   0.0000
    69 H28      8.0576   0.9490   1.8385   H         1 RES1   0.0000
    70 H29      9.6225   2.8575   1.4348   H         1 RES1   0.0000
    71 H30      8.6255   3.3946   0.3506   H         1 RES1   0.0000
    72 H31      9.0420   4.3089   1.5542   H         1 RES1   0.0000
    73 H32      2.0985   6.1655   2.8260   H         1 RES1   0.0000
    74 H33      2.9089   7.4637   2.4867   H         1 RES1   0.0000
    75 H34      1.4517   7.2851   1.9409   H         1 RES1   0.0000
    76 H35      3.6829   7.7596   0.1630   H         1 RES1   0.0000
    77 H36      3.3119   6.7200  -0.9496   H         1 RES1   0.0000
    78 H37      2.2008   7.6383  -0.3336   H         1 RES1   0.0000
    79 H38      1.5772   4.5249   1.0974   H         1 RES1   0.0000
    80 H39      0.9435   5.6724   0.2369   H         1 RES1   0.0000
    81 H40      2.0540   4.7541  -0.3772   H         1 RES1   0.0000
    82 H41      2.7506   2.7136   7.3711   H         1 RES1   0.0000
    83 H42      3.8942   3.6719   7.8184   H         1 RES1   0.0000
    84 H43      5.3424   2.4390   6.4727   H         1 RES1   0.0000
    85 H44      4.7694   1.5154   7.5833   H         1 RES1   0.0000
    86 H45      2.1004   5.2286   6.7892   H         1 RES1   0.0000
    87 H46      1.9215   5.1353   5.2331   H         1 RES1   0.0000
    88 H47      1.3813   3.9877   6.1561   H         1 RES1   0.0000
    89 H48      4.4651   5.4831   6.3741   H         1 RES1   0.0000
    90 H49      5.2081   4.3489   5.5894   H         1 RES1   0.0000
    91 H50      4.2444   5.3245   4.8313   H         1 RES1   0.0000
    92 H51      5.4471  -0.2932   5.9420   H         1 RES1   0.0000
    93 H52      4.8129  -0.2226   4.5091   H         1 RES1   0.0000
    94 H53      5.8300   0.8770   4.9715   H         1 RES1   0.0000
    95 H54      3.2625  -0.2972   6.9124   H         1 RES1   0.0000
    96 H55      2.2495   0.8477   6.5674   H         1 RES1   0.0000
    97 H56      2.6227  -0.2199   5.4833   H         1 RES1   0.0000
@<TRIPOS>BOND
     1     1     2    1
     2     2     4   un
     3     3     1    1
     4     4     5   un
     5     5     3   un
     6     6     5    1
     7     7     6    2
     8     8     7    1
     9     9     4    1
    10    10     6    1
    11    11    10    1
    12    12    10    1
    13    13    10    1
    14    14     9    1
    15    15    14    1
    16    16    14    1
    17    17    14    1
    18    18     1    1
    19    19     1    1
    20    20    18    1
    21    21    19    1
    22    22    21   ar
    23    23    22   ar
    24    24    23   ar
    25    25    20   ar
    26    26    22    1
    27    27    26    1
    28    28    26    1
    29    29    26    1
    30    30    25    1
    31    31    30    1
    32    32    30    1
    33    33    30    1
    34    34     1    1
    35    35     1    1
    36    36    34    1
    37    37    35    1
    38    38    34    1
    39    39    34    1
    40    40    35    1
    41    41    35    1
    42    42     7    1
    43    43     8    1
    44    44    11    1
    45    45    11    1
    46    46    11    1
    47    47    12    1
    48    48    12    1
    49    49    12    1
    50    50    13    1
    51    51    13    1
    52    52    13    1
    53    53    15    1
    54    54    15    1
    55    55    15    1
    56    56    16    1
    57    57    16    1
    58    58    16    1
    59    59    17    1
    60    60    17    1
    61    61    17    1
    62    62    23    1
    63    63    24    1
    64    64    27    1
    65    65    27    1
    66    66    27    1
    67    67    28    1
    68    68    28    1
    69    69    28    1
    70    70    29    1
    71    71    29    1
    72    72    29    1
    73    73    31    1
    74    74    31    1
    75    75    31    1
    76    76    32    1
    77    77    32    1
    78    78    32    1
    79    79    33    1
    80    80    33    1
    81    81    33    1
    82    82    36    1
    83    83    36    1
    84    84    37    1
    85    85    37    1
    86    86    38    1
    87    87    38    1
    88    88    38    1
    89    89    39    1
    90    90    39    1
    91    91    39    1
    92    92    40    1
    93    93    40    1
    94    94    40    1
    95    95    41    1
    96    96    41    1
    97    97    41    1
    98     8     9    2
    99    20    21   ar
   100    24    25   ar
   101    36    37    1
@<TRIPOS>SUBSTRUCTURE
     1 RES1        1 GROUP             0 ****  ****    0  
@<TRIPOS>CRYSIN
   14.5310   13.3280   19.7810   90.0000  106.6300   90.0000    14     1
