@<TRIPOS>MOLECULE
ZEGLOP
    81    87     3     0     0
SMALL
NO_CHARGES
****
Generated from the CSD

@<TRIPOS>ATOM
     1 Fe1      8.0247   4.6321   1.9023   Fe        1 RES1   0.0000
     2 O1       6.6118   3.8307   0.7489   O.2       1 RES1   0.0000
     3 N1       3.3716   1.4787  -2.1524   N.ar      1 RES1   0.0000
     4 C1       4.5792   2.0166  -2.3139   C.ar      1 RES1   0.0000
     5 H1       5.0045   1.9248  -3.1582   H         1 RES1   0.0000
     6 O2       6.5327   5.2025   3.1101   O.2       1 RES1   0.0000
     7 N2       3.2839   4.7012   4.5044   N.ar      1 RES1   0.0000
     8 C2       5.2420   2.7003  -1.3156   C.ar      1 RES1   0.0000
     9 H2       6.1014   3.0714  -1.4780   H         1 RES1   0.0000
    10 C3       4.6427   2.8403  -0.0721   C.ar      1 RES1   0.0000
    11 C4       3.4053   2.2931   0.1458   C.ar      1 RES1   0.0000
    12 H3       2.9713   2.3668   0.9875   H         1 RES1   0.0000
    13 C5       2.8108   1.6247  -0.9271   C.ar      1 RES1   0.0000
    14 H4       1.9522   1.2439  -0.7871   H         1 RES1   0.0000
    15 C6       5.3767   3.5949   1.0041   C.2       1 RES1   0.0000
    16 C7       4.7112   4.0013   2.1598   C.2       1 RES1   0.0000
    17 H5       3.8057   3.7427   2.2783   H         1 RES1   0.0000
    18 C8       5.3269   4.7764   3.1557   C.2       1 RES1   0.0000
    19 C9       4.5487   5.1639   4.3810   C.ar      1 RES1   0.0000
    20 C10      5.1465   5.9566   5.3420   C.ar      1 RES1   0.0000
    21 H6       6.0372   6.2679   5.2285   H         1 RES1   0.0000
    22 C11      4.4147   6.2901   6.4812   C.ar      1 RES1   0.0000
    23 H7       4.8039   6.8391   7.1514   H         1 RES1   0.0000
    24 C12      3.1502   5.8315   6.6320   C.ar      1 RES1   0.0000
    25 H8       2.6439   6.0469   7.4058   H         1 RES1   0.0000
    26 C13      2.6166   5.0435   5.6370   C.ar      1 RES1   0.0000
    27 H9       1.7292   4.7211   5.7480   H         1 RES1   0.0000
    28 O1A      9.4245   3.8106   0.7489   O.2       1 RES1   0.0000
    29 N1A     13.0814   2.1806  -2.1524   N.ar      1 RES1   0.0000
    30 C1A     12.0118   2.9575  -2.3139   C.ar      1 RES1   0.0000
    31 H1A     11.8786   3.3716  -3.1582   H         1 RES1   0.0000
    32 O2A      8.2759   3.0563   3.1101   O.2       1 RES1   0.0000
    33 N2A     10.3345   0.4934   4.5044   N.ar      1 RES1   0.0000
    34 C2A     11.0882   3.1895  -1.3156   C.ar      1 RES1   0.0000
    35 H2A     10.3372   3.7482  -1.4780   H         1 RES1   0.0000
    36 C3A     11.2667   2.6006  -0.0721   C.ar      1 RES1   0.0000
    37 C4A     12.3592   1.8025   0.1458   C.ar      1 RES1   0.0000
    38 H3A     12.5125   1.3898   0.9875   H         1 RES1   0.0000
    39 C5A     13.2354   1.6219  -0.9271   C.ar      1 RES1   0.0000
    40 H4A     13.9945   1.0687  -0.7871   H         1 RES1   0.0000
    41 C6A     10.2461   2.8589   1.0041   C.2       1 RES1   0.0000
    42 C7A     10.2269   2.0794   2.1598   C.2       1 RES1   0.0000
    43 H5A     10.9037   1.4245   2.2783   H         1 RES1   0.0000
    44 C8A      9.2479   2.2250   3.1557   C.2       1 RES1   0.0000
    45 C9A      9.3014   1.3574   4.3810   C.ar      1 RES1   0.0000
    46 C10A     8.3160   1.4787   5.3420   C.ar      1 RES1   0.0000
    47 H6A      7.6010   2.0944   5.2285   H         1 RES1   0.0000
    48 C11A     8.3930   0.6782   6.4812   C.ar      1 RES1   0.0000
    49 H7A      7.7230   0.7408   7.1514   H         1 RES1   0.0000
    50 C12A     9.4225  -0.1876   6.6320   C.ar      1 RES1   0.0000
    51 H8A      9.4891  -0.7338   7.4058   H         1 RES1   0.0000
    52 C13A    10.3717  -0.2557   5.6370   C.ar      1 RES1   0.0000
    53 H9A     11.0946  -0.8631   5.7480   H         1 RES1   0.0000
    54 O1B      8.0355   6.2565   0.7489   O.2       1 RES1   0.0000
    55 N1B      7.6187  10.2385  -2.1524   N.ar      1 RES1   0.0000
    56 C1B      7.4807   8.9238  -2.3139   C.ar      1 RES1   0.0000
    57 H1B      7.1886   8.6013  -3.1582   H         1 RES1   0.0000
    58 O2B      9.2630   5.6390   3.1101   O.2       1 RES1   0.0000
    59 N2B     10.4533   8.7032   4.5044   N.ar      1 RES1   0.0000
    60 C2B      7.7415   8.0079  -1.3156   C.ar      1 RES1   0.0000
    61 H2B      7.6331   7.0782  -1.4780   H         1 RES1   0.0000
    62 C3B      8.1623   8.4570  -0.0721   C.ar      1 RES1   0.0000
    63 C4B      8.3071   9.8021   0.1458   C.ar      1 RES1   0.0000
    64 H3B      8.5880  10.1412   0.9875   H         1 RES1   0.0000
    65 C5B      8.0255  10.6513  -0.9271   C.ar      1 RES1   0.0000
    66 H4B      8.1250  11.5852  -0.7871   H         1 RES1   0.0000
    67 C6B      8.4488   7.4439   1.0041   C.2       1 RES1   0.0000
    68 C7B      9.1335   7.8171   2.1598   C.2       1 RES1   0.0000
    69 H5B      9.3623   8.7306   2.2783   H         1 RES1   0.0000
    70 C8B      9.4969   6.8964   3.1557   C.2       1 RES1   0.0000
    71 C9B     10.2216   7.3765   4.3810   C.ar      1 RES1   0.0000
    72 C10B    10.6092   6.4625   5.3420   C.ar      1 RES1   0.0000
    73 H6B     10.4335   5.5355   5.2285   H         1 RES1   0.0000
    74 C11B    11.2640   6.9294   6.4812   C.ar      1 RES1   0.0000
    75 H7B     11.5448   6.3179   7.1514   H         1 RES1   0.0000
    76 C12B    11.4991   8.2539   6.6320   C.ar      1 RES1   0.0000
    77 H8B     11.9388   8.5847   7.4058   H         1 RES1   0.0000
    78 C13B    11.0834   9.1100   5.6370   C.ar      1 RES1   0.0000
    79 H9B     11.2479  10.0398   5.7480   H         1 RES1   0.0000
    80 O3       2.3189   1.3870   3.2211   O.3       2 RES2   0.0000
    81 O4       0.0000   0.0000   2.3380   O.3       3 RES3   0.0000
@<TRIPOS>BOND
     1     1     2    1
     2     2    15   un
     3     3     4   ar
     4     4     5    1
     5     6     1    1
     6     7    19   ar
     7     8     4   ar
     8     9     8    1
     9    10     8   ar
    10    11    10   ar
    11    12    11    1
    12    13     3   ar
    13    14    13    1
    14    15    10    1
    15    16    15   un
    16    17    16    1
    17    18     6   un
    18    19    18    1
    19    20    19   ar
    20    21    20    1
    21    22    20   ar
    22    23    22    1
    23    24    22   ar
    24    25    24    1
    25    26     7   ar
    26    27    26    1
    27    28     1    1
    28    29    30   ar
    29    30    31    1
    30    32     1    1
    31    33    45   ar
    32    34    30   ar
    33    35    34    1
    34    36    34   ar
    35    37    36   ar
    36    38    37    1
    37    39    29   ar
    38    40    39    1
    39    41    28   un
    40    42    41   un
    41    43    42    1
    42    44    32   un
    43    45    44    1
    44    46    45   ar
    45    47    46    1
    46    48    46   ar
    47    49    48    1
    48    50    48   ar
    49    51    50    1
    50    52    33   ar
    51    53    52    1
    52    54     1    1
    53    55    56   ar
    54    56    57    1
    55    58     1    1
    56    59    71   ar
    57    60    56   ar
    58    61    60    1
    59    62    60   ar
    60    63    62   ar
    61    64    63    1
    62    65    55   ar
    63    66    65    1
    64    67    54   un
    65    68    67   un
    66    69    68    1
    67    70    58   un
    68    71    70    1
    69    72    71   ar
    70    73    72    1
    71    74    72   ar
    72    75    74    1
    73    76    74   ar
    74    77    76    1
    75    78    59   ar
    76    79    78    1
    77    11    13   ar
    78    16    18   un
    79    24    26   ar
    80    36    41    1
    81    37    39   ar
    82    42    44   un
    83    50    52   ar
    84    62    67    1
    85    63    65   ar
    86    68    70   un
    87    76    78   ar
@<TRIPOS>SUBSTRUCTURE
     1 RES1        1 GROUP             0 ****  ****    0  
     2 RES2       80 GROUP             0 ****  ****    0  
     3 RES3       81 GROUP             0 ****  ****    0  
@<TRIPOS>CRYSIN
   16.0478   16.0478    8.2848   90.0000   90.0000  120.0000   147     1
