@<TRIPOS>MOLECULE
ZELJOS
    75    79     2     0     0
SMALL
NO_CHARGES
****
Generated from the CSD

@<TRIPOS>ATOM
     1 Fe1      2.3078   3.7252   9.2565   Fe        1 RES1   0.0000
     2 S1       3.9144   2.6703  13.6732   S.2       1 RES1   0.0000
     3 N1       3.4155   3.4462  11.0287   N.2       1 RES1   0.0000
     4 C1       3.6164   3.1374  12.1344   C.1       1 RES1   0.0000
     5 S2      -1.8384   1.6128  10.6846   S.2       1 RES1   0.0000
     6 N2       0.5596   2.8910  10.0477   N.2       1 RES1   0.0000
     7 C2      -0.4289   2.3558  10.3199   C.1       1 RES1   0.0000
     8 C3       2.3216   6.4544   7.5609   C.3       1 RES1   0.0000
     9 H1       2.3247   7.3080   7.0401   H         1 RES1   0.0000
    10 N3       1.7285   5.7771   9.8360   N.2       1 RES1   0.0000
    11 C4       1.1088   6.3421  10.8738   C.2       1 RES1   0.0000
    12 N4       1.7101   6.7321   8.8488   N.pl3     1 RES1   0.0000
    13 C5       0.7089   7.6448  10.5580   C.2       1 RES1   0.0000
    14 H2       0.2579   8.2538  11.1301   H         1 RES1   0.0000
    15 C6       1.0970   7.8733   9.2569   C.2       1 RES1   0.0000
    16 C7       0.8745   5.5957  12.1415   C.3       1 RES1   0.0000
    17 H3      -0.0145   5.1830  12.1188   H         1 RES1   0.0000
    18 H4       0.9274   6.2133  12.8994   H         1 RES1   0.0000
    19 H5       1.5555   4.8978  12.2415   H         1 RES1   0.0000
    20 C8       0.9172   9.0749   8.4030   C.3       1 RES1   0.0000
    21 H6       1.7901   9.4818   8.2226   H         1 RES1   0.0000
    22 H7       0.3448   9.7226   8.8664   H         1 RES1   0.0000
    23 H8       0.4978   8.8155   7.5558   H         1 RES1   0.0000
    24 N5       1.2453   4.2834   7.3776   N.2       1 RES1   0.0000
    25 C9       0.5457   3.6354   6.4449   C.2       1 RES1   0.0000
    26 N6       1.5557   5.4932   6.8121   N.pl3     1 RES1   0.0000
    27 C10      0.4227   4.4265   5.2887   C.2       1 RES1   0.0000
    28 H9      -0.0337   4.1914   4.4901   H         1 RES1   0.0000
    29 C11      1.0830   5.5951   5.5297   C.2       1 RES1   0.0000
    30 C12      0.0022   2.2684   6.6941   C.3       1 RES1   0.0000
    31 H10      0.7419   1.6278   6.7520   H         1 RES1   0.0000
    32 H11     -0.5924   2.0133   5.9571   H         1 RES1   0.0000
    33 H12     -0.5000   2.2641   7.5362   H         1 RES1   0.0000
    34 C13      1.3430   6.7736   4.6606   C.3       1 RES1   0.0000
    35 H13      1.1260   7.5946   5.1498   H         1 RES1   0.0000
    36 H14      0.7853   6.7148   3.8570   H         1 RES1   0.0000
    37 H15      2.2873   6.7865   4.4030   H         1 RES1   0.0000
    38 N7       3.9787   4.8151   8.2758   N.2       1 RES1   0.0000
    39 C14      5.3118   4.7144   8.2118   C.2       1 RES1   0.0000
    40 N8       3.6962   6.0363   7.7142   N.pl3     1 RES1   0.0000
    41 C15      5.8693   5.8507   7.6186   C.2       1 RES1   0.0000
    42 H16      6.7918   6.0184   7.4651   H         1 RES1   0.0000
    43 C16      4.8207   6.6781   7.3003   C.2       1 RES1   0.0000
    44 C17      5.9986   3.4907   8.7305   C.3       1 RES1   0.0000
    45 H17      5.5473   3.1826   9.5439   H         1 RES1   0.0000
    46 H18      6.9331   3.7027   8.9357   H         1 RES1   0.0000
    47 H19      5.9640   2.7842   8.0519   H         1 RES1   0.0000
    48 C18      4.7796   8.0073   6.6130   C.3       1 RES1   0.0000
    49 H20      4.4855   7.8855   5.6851   H         1 RES1   0.0000
    50 H21      5.6741   8.4071   6.6222   H         1 RES1   0.0000
    51 H22      4.1520   8.5963   7.0810   H         1 RES1   0.0000
    52 N9       3.0076   1.9222   8.2856   N.2       1 RES1   0.0000
    53 C19      3.1623   0.6557   8.6640   C.2       1 RES1   0.0000
    54 N10      3.5165   1.9674   7.0120   N.pl3     1 RES1   0.0000
    55 H23      3.5312   2.6939   6.5155   H         1 RES1   0.0000
    56 C20      3.7747  -0.0831   7.6499   C.2       1 RES1   0.0000
    57 H24      4.0007  -1.0059   7.6749   H         1 RES1   0.0000
    58 C21      3.9849   0.7867   6.6114   C.2       1 RES1   0.0000
    59 C22      2.6926   0.1777   9.9998   C.3       1 RES1   0.0000
    60 H25      2.4834   0.9486  10.5682   H         1 RES1   0.0000
    61 H26      3.3973  -0.3582  10.4206   H         1 RES1   0.0000
    62 H27      1.8887  -0.3711   9.8871   H         1 RES1   0.0000
    63 C23      4.6036   0.5990   5.2636   C.3       1 RES1   0.0000
    64 H28      3.9272   0.2665   4.6377   H         1 RES1   0.0000
    65 H29      5.3359  -0.0487   5.3276   H         1 RES1   0.0000
    66 H30      4.9522   1.4573   4.9418   H         1 RES1   0.0000
    67 O1       9.0709   2.9304   3.3388   O.3       2 RES2   0.0000
    68 H31      9.5093   3.4907   2.8914   H         2 RES2   0.0000
    69 C24      8.1031   3.5824   4.0722   C.3       2 RES2   0.0000
    70 H32      7.2154   3.3216   3.7183   H         2 RES2   0.0000
    71 H33      8.2067   4.5568   3.9299   H         2 RES2   0.0000
    72 C25      8.1248   3.3259   5.4788   C.3       2 RES2   0.0000
    73 H34      7.7975   2.4174   5.6513   H         2 RES2   0.0000
    74 H35      7.5492   3.9721   5.9376   H         2 RES2   0.0000
    75 H36      9.0417   3.4104   5.8131   H         2 RES2   0.0000
@<TRIPOS>BOND
     1     1     3    1
     2     2     4    2
     3     3     4    2
     4     5     7    2
     5     6     1    1
     6     7     6    2
     7     8     9    1
     8    10     1    1
     9    11    10    2
    10    12     8    1
    11    13    11    1
    12    14    13    1
    13    15    12    1
    14    16    11    1
    15    17    16    1
    16    18    16    1
    17    19    16    1
    18    20    15    1
    19    21    20    1
    20    22    20    1
    21    23    20    1
    22    24     1    1
    23    25    24    2
    24    26     8    1
    25    27    25    1
    26    28    27    1
    27    29    26    1
    28    30    25    1
    29    31    30    1
    30    32    30    1
    31    33    30    1
    32    34    29    1
    33    35    34    1
    34    36    34    1
    35    37    34    1
    36    38     1    1
    37    39    38    2
    38    40     8    1
    39    41    39    1
    40    42    41    1
    41    43    40    1
    42    44    39    1
    43    45    44    1
    44    46    44    1
    45    47    44    1
    46    48    43    1
    47    49    48    1
    48    50    48    1
    49    51    48    1
    50    52     1    1
    51    53    52    2
    52    54    52    1
    53    55    54    1
    54    56    53    1
    55    57    56    1
    56    58    54    1
    57    59    53    1
    58    60    59    1
    59    61    59    1
    60    62    59    1
    61    63    58    1
    62    64    63    1
    63    65    63    1
    64    66    63    1
    65    10    12    1
    66    13    15    2
    67    24    26    1
    68    27    29    2
    69    38    40    1
    70    41    43    2
    71    56    58    2
    72    67    68    1
    73    69    67    1
    74    70    69    1
    75    71    69    1
    76    72    69    1
    77    73    72    1
    78    74    72    1
    79    75    72    1
@<TRIPOS>SUBSTRUCTURE
     1 RES1        1 GROUP             0 ****  ****    0  
     2 RES2       67 GROUP             0 ****  ****    0  
@<TRIPOS>CRYSIN
   11.6707   14.3295   17.8191   90.0000   93.6720   90.0000    14     1
