@<TRIPOS>MOLECULE
ZEQMEP
    94   102     2     0     0
SMALL
USER_CHARGES
****
Generated from the CSD

@<TRIPOS>ATOM
     1 Fe1      6.6266   0.0000   9.3007   Fe        1 RES1   2.0000
     2 N1       7.8616  -1.5252   8.3547   N.2       1 RES1   0.0000
     3 N2       7.1880  -2.4810   7.6430   N.pl3     1 RES1   0.0000
     4 N3       5.6917   0.1490   7.3712   N.2       1 RES1   0.0000
     5 N4       5.5861  -1.0190   6.6569   N.pl3     1 RES1   0.0000
     6 N5       5.2088  -1.6142   9.5896   N.2       1 RES1   0.0000
     7 N6       4.9634  -2.4107   8.5001   N.pl3     1 RES1   0.0000
     8 C1       7.9925  -3.5174   7.3016   C.2       1 RES1   0.0000
     9 C2       9.2295  -3.2197   7.8048   C.2       1 RES1   0.0000
    10 H1      10.0064  -3.7449   7.7363   H         1 RES1   0.0000
    11 C3       9.1092  -1.9821   8.4408   C.2       1 RES1   0.0000
    12 C4       7.5092  -4.7058   6.5555   C.3       1 RES1   0.0000
    13 H2       6.7701  -5.1093   7.0351   H         1 RES1   0.0000
    14 H3       8.2311  -5.3485   6.4696   H         1 RES1   0.0000
    15 H4       7.2111  -4.4343   5.6734   H         1 RES1   0.0000
    16 C5      10.1789  -1.2105   9.1465   C.3       1 RES1   0.0000
    17 H5       9.9126  -0.2808   9.2189   H         1 RES1   0.0000
    18 H6      11.0059  -1.2708   8.6441   H         1 RES1   0.0000
    19 H7      10.3116  -1.5786  10.0336   H         1 RES1   0.0000
    20 C6       5.3013  -0.7839   5.3453   C.2       1 RES1   0.0000
    21 C7       5.2136   0.5768   5.2201   C.2       1 RES1   0.0000
    22 H8       5.0323   1.0576   4.4327   H         1 RES1   0.0000
    23 C8       5.4471   1.1131   6.4895   C.2       1 RES1   0.0000
    24 C9       5.1364  -1.8646   4.3371   C.3       1 RES1   0.0000
    25 H9       4.4461  -2.4792   4.6318   H         1 RES1   0.0000
    26 H10      5.9739  -2.3440   4.2374   H         1 RES1   0.0000
    27 H11      4.8817  -1.4767   3.4859   H         1 RES1   0.0000
    28 C10      5.4374   2.5510   6.8872   C.3       1 RES1   0.0000
    29 H12      5.7200   2.6332   7.8108   H         1 RES1   0.0000
    30 H13      4.5410   2.9077   6.7914   H         1 RES1   0.0000
    31 H14      6.0465   3.0481   6.3171   H         1 RES1   0.0000
    32 C11      3.9347  -3.2744   8.7263   C.2       1 RES1   0.0000
    33 C12      3.5065  -3.0242   9.9968   C.2       1 RES1   0.0000
    34 H15      2.8005  -3.4547  10.4447   H         1 RES1   0.0000
    35 C13      4.3199  -2.0061  10.5042   C.2       1 RES1   0.0000
    36 C14      3.4577  -4.2721   7.7269   C.3       1 RES1   0.0000
    37 H16      4.1877  -4.8659   7.4890   H         1 RES1   0.0000
    38 H17      3.1450  -3.8093   6.9328   H         1 RES1   0.0000
    39 H18      2.7313  -4.7879   8.1065   H         1 RES1   0.0000
    40 C15      4.2751  -1.3863  11.8702   C.3       1 RES1   0.0000
    41 H19      4.9807  -0.7238  11.9477   H         1 RES1   0.0000
    42 H20      4.4022  -2.0737  12.5411   H         1 RES1   0.0000
    43 H21      3.4136  -0.9578  12.0035   H         1 RES1   0.0000
    44 C16      5.7871  -2.2820   7.3204   C.3       1 RES1   0.0000
    45 H22      5.5204  -2.9971   6.6891   H         1 RES1   0.0000
    46 N1D      5.3916   1.5252  10.2468   N.2       1 RES1   0.0000
    47 N2D      6.0653   2.4810  10.9585   N.pl3     1 RES1   0.0000
    48 N3D      7.5615  -0.1490  11.2303   N.2       1 RES1   0.0000
    49 N4D      7.6671   1.0190  11.9446   N.pl3     1 RES1   0.0000
    50 N5D      8.0444   1.6142   9.0119   N.2       1 RES1   0.0000
    51 N6D      8.2898   2.4107  10.1013   N.pl3     1 RES1   0.0000
    52 C1D      5.2607   3.5174  11.2998   C.2       1 RES1   0.0000
    53 C2D      4.0238   3.2197  10.7967   C.2       1 RES1   0.0000
    54 H1D      3.2469   3.7449  10.8651   H         1 RES1   0.0000
    55 C3D      4.1440   1.9821  10.1607   C.2       1 RES1   0.0000
    56 C4D      5.7440   4.7058  12.0459   C.3       1 RES1   0.0000
    57 H2D      6.4831   5.1093  11.5664   H         1 RES1   0.0000
    58 H3D      5.0222   5.3485  12.1319   H         1 RES1   0.0000
    59 H4D      6.0421   4.4343  12.9280   H         1 RES1   0.0000
    60 C5D      3.0743   1.2105   9.4549   C.3       1 RES1   0.0000
    61 H5D      3.3407   0.2808   9.3826   H         1 RES1   0.0000
    62 H6D      2.2473   1.2708   9.9574   H         1 RES1   0.0000
    63 H7D      2.9417   1.5786   8.5678   H         1 RES1   0.0000
    64 C6D      7.9519   0.7839  13.2561   C.2       1 RES1   0.0000
    65 C7D      8.0397  -0.5768  13.3813   C.2       1 RES1   0.0000
    66 H8D      8.2210  -1.0576  14.1687   H         1 RES1   0.0000
    67 C8D      7.8062  -1.1131  12.1120   C.2       1 RES1   0.0000
    68 C9D      8.1168   1.8646  14.2643   C.3       1 RES1   0.0000
    69 H9D      8.8072   2.4792  13.9697   H         1 RES1   0.0000
    70 H10D     7.2794   2.3440  14.3641   H         1 RES1   0.0000
    71 H11D     8.3715   1.4767  15.1156   H         1 RES1   0.0000
    72 C10D     7.8158  -2.5510  11.7143   C.3       1 RES1   0.0000
    73 H12D     7.5332  -2.6332  10.7907   H         1 RES1   0.0000
    74 H13D     8.7122  -2.9077  11.8101   H         1 RES1   0.0000
    75 H14D     7.2067  -3.0481  12.2844   H         1 RES1   0.0000
    76 C11D     9.3185   3.2744   9.8751   C.2       1 RES1   0.0000
    77 C12D     9.7468   3.0242   8.6047   C.2       1 RES1   0.0000
    78 H15D    10.4527   3.4547   8.1567   H         1 RES1   0.0000
    79 C13D     8.9333   2.0061   8.0972   C.2       1 RES1   0.0000
    80 C14D     9.7955   4.2721  10.8746   C.3       1 RES1   0.0000
    81 H16D     9.0655   4.8659  11.1125   H         1 RES1   0.0000
    82 H17D    10.1082   3.8093  11.6687   H         1 RES1   0.0000
    83 H18D    10.5220   4.7879  10.4949   H         1 RES1   0.0000
    84 C15D     8.9781   1.3863   6.7313   C.3       1 RES1   0.0000
    85 H19D     8.2725   0.7238   6.6537   H         1 RES1   0.0000
    86 H20D     8.8510   2.0737   6.0604   H         1 RES1   0.0000
    87 H21D     9.8397   0.9578   6.5979   H         1 RES1   0.0000
    88 C16D     7.4662   2.2820  11.2810   C.3       1 RES1   0.0000
    89 H22D     7.7329   2.9971  11.9124   H         1 RES1   0.0000
    90 Cl1      1.5875  -0.6007   5.6675   Cl        2 RES2   0.0000
    91 O1       0.2025  -0.9079   5.5256   O.3       2 RES2  -1.0000
    92 O2       2.2923  -1.7868   5.9746   O.2       2 RES2   0.0000
    93 O3       2.0755  -0.0467   4.4389   O.2       2 RES2   0.0000
    94 O4       1.7632   0.3338   6.7166   O.2       2 RES2   0.0000
@<TRIPOS>BOND
     1     1     2    1
     2     2     3    1
     3     3     8    1
     4     4     1    1
     5     5     4    1
     6     6     1    1
     7     7     6    1
     8     8     9    2
     9     9    10    1
    10    11     2    2
    11    12     8    1
    12    13    12    1
    13    14    12    1
    14    15    12    1
    15    16    11    1
    16    17    16    1
    17    18    16    1
    18    19    16    1
    19    20     5    1
    20    21    20    2
    21    22    21    1
    22    23     4    2
    23    24    20    1
    24    25    24    1
    25    26    24    1
    26    27    24    1
    27    28    23    1
    28    29    28    1
    29    30    28    1
    30    31    28    1
    31    32     7    1
    32    33    32    2
    33    34    33    1
    34    35     6    2
    35    36    32    1
    36    37    36    1
    37    38    36    1
    38    39    36    1
    39    40    35    1
    40    41    40    1
    41    42    40    1
    42    43    40    1
    43    44     3    1
    44    45    44    1
    45    46     1    1
    46    47    46    1
    47    48     1    1
    48    49    48    1
    49    50     1    1
    50    51    50    1
    51    52    47    1
    52    53    52    2
    53    54    53    1
    54    55    46    2
    55    56    52    1
    56    57    56    1
    57    58    56    1
    58    59    56    1
    59    60    55    1
    60    61    60    1
    61    62    60    1
    62    63    60    1
    63    64    49    1
    64    65    64    2
    65    66    65    1
    66    67    48    2
    67    68    64    1
    68    69    68    1
    69    70    68    1
    70    71    68    1
    71    72    67    1
    72    73    72    1
    73    74    72    1
    74    75    72    1
    75    76    51    1
    76    77    76    2
    77    78    77    1
    78    79    50    2
    79    80    76    1
    80    81    80    1
    81    82    80    1
    82    83    80    1
    83    84    79    1
    84    85    84    1
    85    86    84    1
    86    87    84    1
    87    88    47    1
    88    89    88    1
    89     5    44    1
    90     7    44    1
    91     9    11    1
    92    21    23    1
    93    33    35    1
    94    49    88    1
    95    51    88    1
    96    53    55    1
    97    65    67    1
    98    77    79    1
    99    90    91    1
   100    92    90    2
   101    93    90    2
   102    94    90    2
@<TRIPOS>SUBSTRUCTURE
     1 RES1        1 GROUP             0 ****  ****    0  
     2 RES2       90 GROUP             0 ****  ****    0  
@<TRIPOS>CRYSIN
   20.3918   10.3995   19.9242   90.0000  110.9950   90.0000    15     1
