@<TRIPOS>MOLECULE
ZEQRAO
   110   123     2     0     0
SMALL
NO_CHARGES
****
Generated from the CSD

@<TRIPOS>ATOM
     1 Fe1     10.3115   5.1936  15.3827   Fe        1 RES1   0.0000
     2 N1      11.7111   5.6518  14.0831   N.2       1 RES1   0.0000
     3 C1      13.1327   5.2936  12.2981   C.2       1 RES1   0.0000
     4 Br1     14.2359   4.4603  11.0587   Br        1 RES1   0.0000
     5 C2      12.6558   4.7806  13.5717   C.2       1 RES1   0.0000
     6 C3      13.1174   3.6717  14.2917   C.2       1 RES1   0.0000
     7 C4      12.4913   3.1509  15.4288   C.2       1 RES1   0.0000
     8 N2      11.1796   3.4725  15.7277   N.2       1 RES1   0.0000
     9 C5      12.9600   2.0852  16.2932   C.2       1 RES1   0.0000
    10 Br2     14.7061   1.5667  16.6221   Br        1 RES1   0.0000
    11 C6      11.8856   1.6959  17.0012   C.2       1 RES1   0.0000
    12 Br3     11.9765   0.3391  18.3108   Br        1 RES1   0.0000
    13 C7      10.7472   2.4921  16.6221   C.2       1 RES1   0.0000
    14 C8       9.4000   2.3301  16.9611   C.2       1 RES1   0.0000
    15 C9       8.4362   3.3174  16.7545   C.2       1 RES1   0.0000
    16 N3       8.7475   4.6287  16.4356   N.2       1 RES1   0.0000
    17 C10      6.9884   3.2060  16.9892   C.2       1 RES1   0.0000
    18 Br4      5.9596   1.6820  17.1115   Br        1 RES1   0.0000
    19 C11      6.5262   4.4456  16.9611   C.2       1 RES1   0.0000
    20 Br5      4.6987   4.8084  17.2058   Br        1 RES1   0.0000
    21 C12     12.8449   6.9056  19.0850   C.ar      1 RES1   0.0000
    22 C13     11.4905   6.7842  19.1692   C.ar      1 RES1   0.0000
    23 C14     10.8143   6.2758  18.0882   C.ar      1 RES1   0.0000
    24 N4       9.3002   4.5028  13.7903   N.ar      1 RES1   0.0000
    25 C15      8.4847   5.2799  13.0502   C.ar      1 RES1   0.0000
    26 C16      7.8166   4.8222  11.9371   C.ar      1 RES1   0.0000
    27 C17      7.9348   3.5391  11.5180   C.ar      1 RES1   0.0000
    28 C18      8.7566   2.7524  12.2420   C.ar      1 RES1   0.0000
    29 C19      9.3944   3.2630  13.3450   C.ar      1 RES1   0.0000
    30 C25      4.2561   8.6585  18.4953   C.ar      1 RES1   0.0000
    31 F1       3.2120   9.2500  19.1030   F         1 RES1   0.0000
    32 C26      4.2922   8.6101  17.1456   C.ar      1 RES1   0.0000
    33 F2       3.3347   9.1532  16.3935   F         1 RES1   0.0000
    34 C27      5.3776   7.9916  16.5399   C.ar      1 RES1   0.0000
    35 F3       5.4242   7.9430  15.2002   F         1 RES1   0.0000
    36 C28     11.3831   9.1625  12.7434   C.ar      1 RES1   0.0000
    37 C29     12.5830   9.7915  12.8055   C.ar      1 RES1   0.0000
    38 F4      13.5398   9.3758  13.6379   F         1 RES1   0.0000
    39 C30     12.8583  10.8944  11.9993   C.ar      1 RES1   0.0000
    40 F5      14.0651  11.5021  12.0936   F         1 RES1   0.0000
    41 C31     11.9185  11.3091  11.1509   C.ar      1 RES1   0.0000
    42 F6      12.1990  12.3994  10.3648   F         1 RES1   0.0000
    43 C32     10.7087  10.7455  11.0567   C.ar      1 RES1   0.0000
    44 F7       9.7611  11.1576  10.2143   F         1 RES1   0.0000
    45 C33     10.4337   9.6542  11.9050   C.ar      1 RES1   0.0000
    46 F8       9.2265   9.0892  11.8208   F         1 RES1   0.0000
    47 N6      11.3826   5.8848  16.9430   N.ar      1 RES1   0.0000
    48 C34     12.7104   6.0535  16.8909   C.ar      1 RES1   0.0000
    49 C35     13.4646   6.5169  17.9498   C.ar      1 RES1   0.0000
    50 C36     15.6420   1.2228  12.8998   C.ar      1 RES1   0.0000
    51 F9      15.6756   0.0076  12.3663   F         1 RES1   0.0000
    52 C37     14.4701   1.8027  13.3009   C.ar      1 RES1   0.0000
    53 F10     13.3510   1.0779  13.1645   F         1 RES1   0.0000
    54 C38      8.9809   1.0434  17.6009   C.ar      1 RES1   0.0000
    55 C39      8.8890  -0.1089  16.8768   C.ar      1 RES1   0.0000
    56 F11      9.2210  -0.1302  15.5993   F         1 RES1   0.0000
    57 C40      8.3852  -1.2841  17.4364   C.ar      1 RES1   0.0000
    58 F12      8.2794  -2.3948  16.7164   F         1 RES1   0.0000
    59 C41      8.0438  -1.2582  18.7420   C.ar      1 RES1   0.0000
    60 F13      7.5218  -2.4015  19.2996   F         1 RES1   0.0000
    61 C42      8.1128  -0.1677  19.5001   C.ar      1 RES1   0.0000
    62 F14      7.7090  -0.1402  20.7757   F         1 RES1   0.0000
    63 C43      8.6041   1.0225  18.9185   C.ar      1 RES1   0.0000
    64 F15      8.6585   2.1157  19.6626   F         1 RES1   0.0000
    65 C44      6.4122   7.4061  17.2519   C.ar      1 RES1   0.0000
    66 C45      6.3170   7.5081  18.6297   C.ar      1 RES1   0.0000
    67 F16      7.2897   7.0029  19.3798   F         1 RES1   0.0000
    68 C46      5.2337   8.1237  19.2615   C.ar      1 RES1   0.0000
    69 F17      5.1959   8.1664  20.5891   F         1 RES1   0.0000
    70 C47      7.5898   5.3596  16.6582   C.2       1 RES1   0.0000
    71 C48      7.5681   6.7538  16.6141   C.2       1 RES1   0.0000
    72 C49      8.5685   7.5394  16.0405   C.2       1 RES1   0.0000
    73 N7       9.5715   7.0082  15.2563   N.2       1 RES1   0.0000
    74 C50      8.6474   8.9798  16.0265   C.2       1 RES1   0.0000
    75 Br6      7.6902  10.2487  16.9851   Br        1 RES1   0.0000
    76 C51      9.6517   9.3063  15.1721   C.2       1 RES1   0.0000
    77 Br7     10.2290  11.0675  14.9334   Br        1 RES1   0.0000
    78 C52     10.2124   8.0898  14.6406   C.2       1 RES1   0.0000
    79 C53     11.0998   7.9537  13.5817   C.2       1 RES1   0.0000
    80 C54     11.7145   6.7576  13.2448   C.2       1 RES1   0.0000
    81 C55     12.5458   6.4661  12.0815   C.2       1 RES1   0.0000
    82 Br8     12.7871   7.4672  10.5413   Br        1 RES1   0.0000
    83 C56     14.4054   3.0667  13.8504   C.ar      1 RES1   0.0000
    84 C57     15.5849   3.7623  13.9688   C.ar      1 RES1   0.0000
    85 F18     15.5970   4.9980  14.4441   F         1 RES1   0.0000
    86 C58     16.8093   3.1954  13.5997   C.ar      1 RES1   0.0000
    87 F19     17.9412   3.9015  13.7602   F         1 RES1   0.0000
    88 C59     16.8085   1.9312  13.0643   C.ar      1 RES1   0.0000
    89 F20     17.9952   1.3913  12.6932   F         1 RES1   0.0000
    90 H1      13.1612   5.8388  16.0846   H         1 RES1   0.0000
    91 H2      14.4094   6.5805  17.8776   H         1 RES1   0.0000
    92 H3      13.3380   7.2561  19.8230   H         1 RES1   0.0000
    93 H4      11.0197   7.0446  19.9554   H         1 RES1   0.0000
    94 H5       9.8689   6.1865  18.1584   H         1 RES1   0.0000
    95 H6       8.3560   6.1792  13.3210   H         1 RES1   0.0000
    96 H7       7.2718   5.4240  11.4478   H         1 RES1   0.0000
    97 H8       7.4583   3.2010  10.7659   H         1 RES1   0.0000
    98 H9       8.9425   1.8531  11.9792   H         1 RES1   0.0000
    99 H10      9.9328   2.6670  13.8585   H         1 RES1   0.0000
   100 N5       4.9987   4.1273   9.3139   N.ar      2 RES2   0.0000
   101 C20      5.9869   4.6655   8.6460   C.ar      2 RES2   0.0000
   102 C21      6.7226   3.9863   7.8378   C.ar      2 RES2   0.0000
   103 C22      6.5096   2.7488   7.6452   C.ar      2 RES2   0.0000
   104 C23      5.5601   2.0549   8.3131   C.ar      2 RES2   0.0000
   105 C24      4.8412   2.8541   9.1313   C.ar      2 RES2   0.0000
   106 H11      6.1018   5.6149   8.7623   H         2 RES2   0.0000
   107 H12      7.4557   4.3842   7.2942   H         2 RES2   0.0000
   108 H13      7.0818   2.1990   7.0395   H         2 RES2   0.0000
   109 H14      5.3562   1.1632   8.1125   H         2 RES2   0.0000
   110 H15      4.1259   2.4520   9.7130   H         2 RES2   0.0000
@<TRIPOS>BOND
     1     1     2    1
     2     2     5    1
     3     3     4    1
     4     5     3    1
     5     6     5    2
     6     7     6    1
     7     8     1    1
     8     9     7    1
     9    10     9    1
    10    11     9    2
    11    12    11    1
    12    13     8    1
    13    14    13    2
    14    15    14    1
    15    16     1    1
    16    17    15    2
    17    18    17    1
    18    19    17    1
    19    20    19    1
    20    21    22   ar
    21    22    23   ar
    22    23    47   ar
    23    24     1    1
    24    25    24   ar
    25    26    25   ar
    26    27    26   ar
    27    28    27   ar
    28    29    24   ar
    29    30    31    1
    30    32    30   ar
    31    33    32    1
    32    34    32   ar
    33    35    34    1
    34    36    37   ar
    35    37    38    1
    36    39    37   ar
    37    40    39    1
    38    41    39   ar
    39    42    41    1
    40    43    41   ar
    41    44    43    1
    42    45    36   ar
    43    46    45    1
    44    47     1    1
    45    48    47   ar
    46    49    21   ar
    47    50    51    1
    48    52    50   ar
    49    53    52    1
    50    54    14    1
    51    55    54   ar
    52    56    55    1
    53    57    55   ar
    54    58    57    1
    55    59    57   ar
    56    60    59    1
    57    61    59   ar
    58    62    61    1
    59    63    54   ar
    60    64    63    1
    61    65    34   ar
    62    66    65   ar
    63    67    66    1
    64    68    30   ar
    65    69    68    1
    66    70    16    1
    67    71    65    1
    68    72    71    2
    69    73     1    1
    70    74    72    1
    71    75    74    1
    72    76    74    2
    73    77    76    1
    74    78    73    2
    75    79    36    1
    76    80     2    1
    77    81     3    2
    78    82    81    1
    79    83     6    1
    80    84    83   ar
    81    85    84    1
    82    86    84   ar
    83    87    86    1
    84    88    50   ar
    85    89    88    1
    86    90    48    1
    87    91    49    1
    88    92    21    1
    89    93    22    1
    90    94    23    1
    91    95    25    1
    92    96    26    1
    93    97    27    1
    94    98    28    1
    95    99    29    1
    96     7     8    2
    97    11    13    1
    98    15    16    1
    99    19    70    2
   100    28    29   ar
   101    43    45   ar
   102    48    49   ar
   103    52    83   ar
   104    61    63   ar
   105    66    68   ar
   106    70    71    1
   107    72    73    1
   108    76    78    1
   109    78    79    1
   110    79    80    2
   111    80    81    1
   112    86    88   ar
   113   100   101   ar
   114   101   102   ar
   115   102   103   ar
   116   103   104   ar
   117   104   105   ar
   118   105   100   ar
   119   106   101    1
   120   107   102    1
   121   108   103    1
   122   109   104    1
   123   110   105    1
@<TRIPOS>SUBSTRUCTURE
     1 RES1        1 GROUP             0 ****  ****    0  
     2 RES2      100 GROUP             0 ****  ****    0  
@<TRIPOS>CRYSIN
   12.4590   13.1250   20.9890   84.7200   72.8700   69.0400     2     1
