@<TRIPOS>MOLECULE
ZERDIM
    87    96     1     0     0
SMALL
NO_CHARGES
****
Generated from the CSD

@<TRIPOS>ATOM
     1 Fe1      6.6634  10.6293   5.4778   Fe        1 RES1   0.0000
     2 Se1      6.5051  13.4172   1.4120   Se        1 RES1   0.0000
     3 N1       7.3532  11.8337   7.1923   N.ar      1 RES1   0.0000
     4 N2       8.7596  10.1243   5.7363   N.2       1 RES1   0.0000
     5 N3       9.5708   9.1449   5.1984   N.2       1 RES1   0.0000
     6 N4      10.3431   9.7110   7.1923   N.pl3     1 RES1   0.0000
     7 N5       7.0121  12.0868   4.0065   N.2       1 RES1   0.0000
     8 C1       6.6195  12.7690   7.8080   C.ar      1 RES1   0.0000
     9 H1       5.7887  13.0294   7.4268   H         1 RES1   0.0000
    10 C2       7.0416  13.3715   8.9912   C.ar      1 RES1   0.0000
    11 H2       6.5046  14.0337   9.4108   H         1 RES1   0.0000
    12 C3       8.2450  12.9976   9.5467   C.ar      1 RES1   0.0000
    13 H3       8.5477  13.4026  10.3497   H         1 RES1   0.0000
    14 C4       9.0163  12.0150   8.9167   C.ar      1 RES1   0.0000
    15 H4       9.8448  11.7319   9.2848   H         1 RES1   0.0000
    16 C5       8.5293  11.4638   7.7335   C.ar      1 RES1   0.0000
    17 C6       9.2304  10.4497   6.9195   C.2       1 RES1   0.0000
    18 C7      10.5197   8.8935   6.0782   C.2       1 RES1   0.0000
    19 C8      11.5591   7.8925   5.8503   C.ar      1 RES1   0.0000
    20 C9      11.5858   7.3001   4.5761   C.ar      1 RES1   0.0000
    21 H5      10.9616   7.5773   3.9155   H         1 RES1   0.0000
    22 C10     12.5163   6.3131   4.2738   C.ar      1 RES1   0.0000
    23 H6      12.5248   5.9229   3.4072   H         1 RES1   0.0000
    24 C11     13.4205   5.8974   5.2159   C.ar      1 RES1   0.0000
    25 H7      14.0504   5.2180   5.0067   H         1 RES1   0.0000
    26 C12     13.4096   6.4784   6.4813   C.ar      1 RES1   0.0000
    27 H8      14.0401   6.1977   7.1354   H         1 RES1   0.0000
    28 C13     12.4829   7.4664   6.7957   C.ar      1 RES1   0.0000
    29 H9      12.4815   7.8522   7.6634   H         1 RES1   0.0000
    30 C14     11.0655   9.6688   8.4424   C.ar      1 RES1   0.0000
    31 C15     12.1942  10.4495   8.6067   C.ar      1 RES1   0.0000
    32 H10     12.4963  11.0190   7.9077   H         1 RES1   0.0000
    33 C16     12.8786  10.3841   9.8140   C.ar      1 RES1   0.0000
    34 H11     13.6542  10.9183   9.9422   H         1 RES1   0.0000
    35 C17     12.4464   9.5506  10.8394   C.ar      1 RES1   0.0000
    36 C18     11.3088   8.7658  10.6346   C.ar      1 RES1   0.0000
    37 H12     11.0164   8.1774  11.3204   H         1 RES1   0.0000
    38 C19     10.6038   8.8311   9.4503   C.ar      1 RES1   0.0000
    39 H13      9.8171   8.3128   9.3265   H         1 RES1   0.0000
    40 C20     13.1907   9.4833  12.1453   C.3       1 RES1   0.0000
    41 H14     12.7450   8.8468  12.7424   H         1 RES1   0.0000
    42 H15     14.1111   9.1871  11.9821   H         1 RES1   0.0000
    43 H16     13.2017  10.3702  12.5606   H         1 RES1   0.0000
    44 C21      6.8155  12.6039   2.9690   C.1       1 RES1   0.0000
    45 Se1A     6.8216   7.8415   9.5436   Se        1 RES1   0.0000
    46 N1A      5.9735   9.4250   3.7632   N.ar      1 RES1   0.0000
    47 N2A      4.5671  11.1344   5.2192   N.2       1 RES1   0.0000
    48 N3A      3.7559  12.1138   5.7572   N.2       1 RES1   0.0000
    49 N4A      2.9836  11.5476   3.7632   N.pl3     1 RES1   0.0000
    50 N5A      6.3146   9.1719   6.9491   N.2       1 RES1   0.0000
    51 C1A      6.7072   8.4896   3.1475   C.ar      1 RES1   0.0000
    52 H1A      7.5381   8.2292   3.5288   H         1 RES1   0.0000
    53 C2A      6.2851   7.8872   1.9643   C.ar      1 RES1   0.0000
    54 H2A      6.8221   7.2250   1.5447   H         1 RES1   0.0000
    55 C3A      5.0817   8.2611   1.4089   C.ar      1 RES1   0.0000
    56 H3A      4.7790   7.8561   0.6058   H         1 RES1   0.0000
    57 C4A      4.3104   9.2437   2.0388   C.ar      1 RES1   0.0000
    58 H4A      3.4819   9.5268   1.6707   H         1 RES1   0.0000
    59 C5A      4.7974   9.7949   3.2220   C.ar      1 RES1   0.0000
    60 C6A      4.0963  10.8090   4.0360   C.2       1 RES1   0.0000
    61 C7A      2.8070  12.3652   4.8774   C.2       1 RES1   0.0000
    62 C8A      1.7676  13.3662   5.1053   C.ar      1 RES1   0.0000
    63 C9A      1.7409  13.9585   6.3794   C.ar      1 RES1   0.0000
    64 H5A      2.3651  13.6814   7.0401   H         1 RES1   0.0000
    65 C10A     0.8104  14.9456   6.6818   C.ar      1 RES1   0.0000
    66 H6A      0.8019  15.3358   7.5484   H         1 RES1   0.0000
    67 C11A    -0.0938  15.3612   5.7396   C.ar      1 RES1   0.0000
    68 H7A     -0.7237  16.0407   5.9489   H         1 RES1   0.0000
    69 C12A    -0.0829  14.7803   4.4743   C.ar      1 RES1   0.0000
    70 H8A     -0.7133  15.0609   3.8202   H         1 RES1   0.0000
    71 C13A     0.8438  13.7923   4.1598   C.ar      1 RES1   0.0000
    72 H9A      0.8452  13.4065   3.2921   H         1 RES1   0.0000
    73 C14A     2.2612  11.5899   2.5132   C.ar      1 RES1   0.0000
    74 C15A     1.1325  10.8092   2.3489   C.ar      1 RES1   0.0000
    75 H10A     0.8304  10.2397   3.0478   H         1 RES1   0.0000
    76 C16A     0.4481  10.8746   1.1416   C.ar      1 RES1   0.0000
    77 H11A    -0.3275  10.3404   1.0134   H         1 RES1   0.0000
    78 C17A     0.8803  11.7081   0.1161   C.ar      1 RES1   0.0000
    79 C18A     2.0179  12.4929   0.3210   C.ar      1 RES1   0.0000
    80 H12A     2.3103  13.0813  -0.3648   H         1 RES1   0.0000
    81 C19A     2.7229  12.4276   1.5053   C.ar      1 RES1   0.0000
    82 H13A     3.5097  12.9458   1.6291   H         1 RES1   0.0000
    83 C20A     0.1360  11.7754  -1.1898   C.3       1 RES1   0.0000
    84 H14A     0.5817  12.4119  -1.7869   H         1 RES1   0.0000
    85 H15A    -0.7844  12.0716  -1.0265   H         1 RES1   0.0000
    86 H16A     0.1250  10.8885  -1.6050   H         1 RES1   0.0000
    87 C21A     6.5112   8.6547   7.9866   C.1       1 RES1   0.0000
@<TRIPOS>BOND
     1     1     3    1
     2     2    44    2
     3     3     8   ar
     4     4     1    1
     5     5     4    1
     6     6    17    1
     7     7     1    1
     8     8     9    1
     9    10     8   ar
    10    11    10    1
    11    12    10   ar
    12    13    12    1
    13    14    12   ar
    14    15    14    1
    15    16     3   ar
    16    17     4    2
    17    18     5    2
    18    19    18    1
    19    20    19   ar
    20    21    20    1
    21    22    20   ar
    22    23    22    1
    23    24    22   ar
    24    25    24    1
    25    26    24   ar
    26    27    26    1
    27    28    19   ar
    28    29    28    1
    29    30     6    1
    30    31    30   ar
    31    32    31    1
    32    33    31   ar
    33    34    33    1
    34    35    33   ar
    35    36    35   ar
    36    37    36    1
    37    38    30   ar
    38    39    38    1
    39    40    35    1
    40    41    40    1
    41    42    40    1
    42    43    40    1
    43    44     7    2
    44    45    87    2
    45    46     1    1
    46    47     1    1
    47    48    47    1
    48    49    60    1
    49    50     1    1
    50    51    46   ar
    51    52    51    1
    52    53    51   ar
    53    54    53    1
    54    55    53   ar
    55    56    55    1
    56    57    55   ar
    57    58    57    1
    58    59    46   ar
    59    60    47    2
    60    61    48    2
    61    62    61    1
    62    63    62   ar
    63    64    63    1
    64    65    63   ar
    65    66    65    1
    66    67    65   ar
    67    68    67    1
    68    69    67   ar
    69    70    69    1
    70    71    62   ar
    71    72    71    1
    72    73    49    1
    73    74    73   ar
    74    75    74    1
    75    76    74   ar
    76    77    76    1
    77    78    76   ar
    78    79    78   ar
    79    80    79    1
    80    81    73   ar
    81    82    81    1
    82    83    78    1
    83    84    83    1
    84    85    83    1
    85    86    83    1
    86    87    50    2
    87     6    18    1
    88    14    16   ar
    89    16    17    1
    90    26    28   ar
    91    36    38   ar
    92    49    61    1
    93    57    59   ar
    94    59    60    1
    95    69    71   ar
    96    79    81   ar
@<TRIPOS>SUBSTRUCTURE
     1 RES1        1 GROUP             0 ****  ****    0  
@<TRIPOS>CRYSIN
    8.9743    9.3627   11.6013   75.9240   76.0560   85.2310     2     1
