@<TRIPOS>MOLECULE
ZERDOS01
    93   102     1     0     0
SMALL
USER_CHARGES
****
Generated from the CSD

@<TRIPOS>ATOM
     1 Fe1      4.8824   2.3997   8.0357   Fe        1 RES1   2.0000
     2 N1       5.5141   4.1370   6.8859   N.ar      1 RES1   0.0000
     3 N2       6.2451   3.4113   9.3008   N.2       1 RES1   0.0000
     4 N3       6.6295   3.2414  10.6061   N.2       1 RES1   0.0000
     5 N4       7.2927   5.2274   9.9048   N.pl3     1 RES1   0.0000
     6 C1       5.2016   4.3645   5.6105   C.ar      1 RES1   0.0000
     7 H1       4.6487   3.7569   5.1750   H         1 RES1   0.0000
     8 C2       5.6579   5.4568   4.9082   C.ar      1 RES1   0.0000
     9 H2       5.4247   5.5816   4.0162   H         1 RES1   0.0000
    10 C3       6.4565   6.3495   5.5510   C.ar      1 RES1   0.0000
    11 H3       6.7730   7.0991   5.0994   H         1 RES1   0.0000
    12 C4       6.8008   6.1460   6.8761   C.ar      1 RES1   0.0000
    13 H4       7.3431   6.7517   7.3269   H         1 RES1   0.0000
    14 C5       6.3214   5.0258   7.5100   C.ar      1 RES1   0.0000
    15 C6       6.6344   4.6016   8.8895   C.2       1 RES1   0.0000
    16 C7       7.2562   4.3414  10.9607   C.2       1 RES1   0.0000
    17 C8       7.7374   4.5853  12.3227   C.ar      1 RES1   0.0000
    18 C9       7.5023   5.7908  12.9665   C.ar      1 RES1   0.0000
    19 H5       7.1245   6.5002  12.5003   H         1 RES1   0.0000
    20 C10      7.8283   5.9358  14.2939   C.ar      1 RES1   0.0000
    21 H6       7.6639   6.7440  14.7262   H         1 RES1   0.0000
    22 C11      8.3940   4.8962  14.9849   C.ar      1 RES1   0.0000
    23 H7       8.6096   5.0009  15.8849   H         1 RES1   0.0000
    24 C12      8.6442   3.7022  14.3565   C.ar      1 RES1   0.0000
    25 H8       9.0373   3.0024  14.8274   H         1 RES1   0.0000
    26 C13      8.3122   3.5361  13.0242   C.ar      1 RES1   0.0000
    27 H9       8.4750   2.7250  12.5999   H         1 RES1   0.0000
    28 C14      7.9644   6.5079   9.9082   C.ar      1 RES1   0.0000
    29 C15      7.2406   7.6702   9.8003   C.ar      1 RES1   0.0000
    30 H10      6.3154   7.6395   9.7135   H         1 RES1   0.0000
    31 C16      7.8970   8.8806   9.8212   C.ar      1 RES1   0.0000
    32 H11      7.4064   9.6648   9.7264   H         1 RES1   0.0000
    33 C17      9.2635   8.9574   9.9787   C.ar      1 RES1   0.0000
    34 C18      9.9577   7.7825  10.1121   C.ar      1 RES1   0.0000
    35 H12     10.8813   7.8152  10.2230   H         1 RES1   0.0000
    36 C19      9.3259   6.5453  10.0896   C.ar      1 RES1   0.0000
    37 H13      9.8145   5.7611  10.1925   H         1 RES1   0.0000
    38 C20      9.9556  10.3031   9.9610   C.3       1 RES1   0.0000
    39 H14      9.3008  10.9990   9.8598   H         1 RES1   0.0000
    40 H15     10.4320  10.4298  10.7855   H         1 RES1   0.0000
    41 H16     10.5731  10.3358   9.2266   H         1 RES1   0.0000
    42 N5       3.3264   3.5409   8.9587   N.1       1 RES1   0.0000
    43 C21      2.4725   4.0583   9.4307   C.1       1 RES1   0.0000
    44 B1       1.2534   4.7907  10.1233   B         1 RES1  -1.0000
    45 H17      0.5653   4.1504  10.3226   H         1 RES1   0.0000
    46 H18      0.9021   5.4597   9.5303   H         1 RES1   0.0000
    47 H19      1.5484   5.2063  10.9366   H         1 RES1   0.0000
    48 N1E      4.2506   0.6623   9.1854   N.ar      1 RES1   0.0000
    49 N2E      3.5196   1.3880   6.7705   N.2       1 RES1   0.0000
    50 N3E      3.1352   1.5579   5.4652   N.2       1 RES1   0.0000
    51 N4E      2.4720  -0.4281   6.1666   N.pl3     1 RES1   0.0000
    52 C1E      4.5631   0.4348  10.4608   C.ar      1 RES1   0.0000
    53 H1E      5.1160   1.0424  10.8964   H         1 RES1   0.0000
    54 C2E      4.1068  -0.6575  11.1632   C.ar      1 RES1   0.0000
    55 H2E      4.3400  -0.7823  12.0551   H         1 RES1   0.0000
    56 C3E      3.3082  -1.5502  10.5203   C.ar      1 RES1   0.0000
    57 H3E      2.9917  -2.2998  10.9719   H         1 RES1   0.0000
    58 C4E      2.9639  -1.3467   9.1952   C.ar      1 RES1   0.0000
    59 H4E      2.4216  -1.9524   8.7444   H         1 RES1   0.0000
    60 C5E      3.4433  -0.2265   8.5614   C.ar      1 RES1   0.0000
    61 C6E      3.1303   0.1977   7.1818   C.2       1 RES1   0.0000
    62 C7E      2.5085   0.4579   5.1107   C.2       1 RES1   0.0000
    63 C8E      2.0273   0.2140   3.7486   C.ar      1 RES1   0.0000
    64 C9E      2.2624  -0.9915   3.1048   C.ar      1 RES1   0.0000
    65 H5E      2.6402  -1.7009   3.5711   H         1 RES1   0.0000
    66 C10E     1.9364  -1.1365   1.7775   C.ar      1 RES1   0.0000
    67 H6E      2.1008  -1.9447   1.3452   H         1 RES1   0.0000
    68 C11E     1.3707  -0.0969   1.0864   C.ar      1 RES1   0.0000
    69 H7E      1.1551  -0.2016   0.1864   H         1 RES1   0.0000
    70 C12E     1.1205   1.0971   1.7148   C.ar      1 RES1   0.0000
    71 H8E      0.7274   1.7969   1.2439   H         1 RES1   0.0000
    72 C13E     1.4525   1.2632   3.0471   C.ar      1 RES1   0.0000
    73 H9E      1.2897   2.0743   3.4714   H         1 RES1   0.0000
    74 C14E     1.8003  -1.7086   6.1632   C.ar      1 RES1   0.0000
    75 C15E     2.5241  -2.8709   6.2710   C.ar      1 RES1   0.0000
    76 H10E     3.4493  -2.8402   6.3578   H         1 RES1   0.0000
    77 C16E     1.8677  -4.0813   6.2502   C.ar      1 RES1   0.0000
    78 H11E     2.3583  -4.8655   6.3450   H         1 RES1   0.0000
    79 C17E     0.5012  -4.1581   6.0927   C.ar      1 RES1   0.0000
    80 C18E    -0.1930  -2.9832   5.9593   C.ar      1 RES1   0.0000
    81 H12E    -1.1166  -3.0159   5.8484   H         1 RES1   0.0000
    82 C19E     0.4388  -1.7460   5.9818   C.ar      1 RES1   0.0000
    83 H13E    -0.0498  -0.9618   5.8789   H         1 RES1   0.0000
    84 C20E    -0.1909  -5.5038   6.1103   C.3       1 RES1   0.0000
    85 H14E     0.4639  -6.1997   6.2116   H         1 RES1   0.0000
    86 H15E    -0.6673  -5.6305   5.2859   H         1 RES1   0.0000
    87 H16E    -0.8084  -5.5365   6.8448   H         1 RES1   0.0000
    88 N5E      6.4383   1.2584   7.1127   N.1       1 RES1   0.0000
    89 C21E     7.2922   0.7410   6.6407   C.1       1 RES1   0.0000
    90 B1E      8.5113   0.0086   5.9480   B         1 RES1  -1.0000
    91 H17E     9.1994   0.6489   5.7487   H         1 RES1   0.0000
    92 H18E     8.8626  -0.6604   6.5410   H         1 RES1   0.0000
    93 H19E     8.2163  -0.4070   5.1348   H         1 RES1   0.0000
@<TRIPOS>BOND
     1     1     2    1
     2     2     6   ar
     3     3     1    1
     4     4     3    1
     5     5    15    1
     6     6     7    1
     7     8     6   ar
     8     9     8    1
     9    10     8   ar
    10    11    10    1
    11    12    10   ar
    12    13    12    1
    13    14     2   ar
    14    15     3    2
    15    16     4    2
    16    17    16    1
    17    18    17   ar
    18    19    18    1
    19    20    18   ar
    20    21    20    1
    21    22    20   ar
    22    23    22    1
    23    24    22   ar
    24    25    24    1
    25    26    17   ar
    26    27    26    1
    27    28     5    1
    28    29    28   ar
    29    30    29    1
    30    31    29   ar
    31    32    31    1
    32    33    31   ar
    33    34    33   ar
    34    35    34    1
    35    36    28   ar
    36    37    36    1
    37    38    33    1
    38    39    38    1
    39    40    38    1
    40    41    38    1
    41    42     1    1
    42    43    42    3
    43    44    43    1
    44    45    44    1
    45    46    44    1
    46    47    44    1
    47    48     1    1
    48    49     1    1
    49    50    49    1
    50    51    61    1
    51    52    48   ar
    52    53    52    1
    53    54    52   ar
    54    55    54    1
    55    56    54   ar
    56    57    56    1
    57    58    56   ar
    58    59    58    1
    59    60    48   ar
    60    61    49    2
    61    62    50    2
    62    63    62    1
    63    64    63   ar
    64    65    64    1
    65    66    64   ar
    66    67    66    1
    67    68    66   ar
    68    69    68    1
    69    70    68   ar
    70    71    70    1
    71    72    63   ar
    72    73    72    1
    73    74    51    1
    74    75    74   ar
    75    76    75    1
    76    77    75   ar
    77    78    77    1
    78    79    77   ar
    79    80    79   ar
    80    81    80    1
    81    82    74   ar
    82    83    82    1
    83    84    79    1
    84    85    84    1
    85    86    84    1
    86    87    84    1
    87    88     1    1
    88    89    88    3
    89    90    89    1
    90    91    90    1
    91    92    90    1
    92    93    90    1
    93     5    16    1
    94    12    14   ar
    95    14    15    1
    96    24    26   ar
    97    34    36   ar
    98    51    62    1
    99    58    60   ar
   100    60    61    1
   101    70    72   ar
   102    80    82   ar
@<TRIPOS>SUBSTRUCTURE
     1 RES1        1 GROUP             0 ****  ****    0  
@<TRIPOS>CRYSIN
   25.8507    9.5986   16.3792   90.0000  101.1260   90.0000    15     1
