@<TRIPOS>MOLECULE
ZERDOS
    93   102     1     0     0
SMALL
USER_CHARGES
****
Generated from the CSD

@<TRIPOS>ATOM
     1 Fe1      4.7154   2.3508   7.9250   Fe        1 RES1   2.0000
     2 N1       4.1842   3.9390   9.0473   N.ar      1 RES1   0.0000
     3 N2       3.5034   3.2893   6.6773   N.2       1 RES1   0.0000
     4 N3       3.1243   3.1003   5.3765   N.2       1 RES1   0.0000
     5 N4       2.4044   5.0806   6.0647   N.pl3     1 RES1   0.0000
     6 C1       4.5006   4.1328  10.3405   C.ar      1 RES1   0.0000
     7 H1       5.0452   3.4877  10.7764   H         1 RES1   0.0000
     8 C2       4.0666   5.2339  11.0667   C.ar      1 RES1   0.0000
     9 H2       4.3078   5.3336  11.9810   H         1 RES1   0.0000
    10 C3       3.2792   6.1836  10.4426   C.ar      1 RES1   0.0000
    11 H3       2.9783   6.9490  10.9174   H         1 RES1   0.0000
    12 C4       2.9324   6.0012   9.1044   C.ar      1 RES1   0.0000
    13 H4       2.3937   6.6387   8.6493   H         1 RES1   0.0000
    14 C5       3.3916   4.8681   8.4537   C.ar      1 RES1   0.0000
    15 C6       3.0787   4.4675   7.0859   C.2       1 RES1   0.0000
    16 C7       2.4693   4.1882   5.0151   C.2       1 RES1   0.0000
    17 C8       1.9981   4.4290   3.6431   C.ar      1 RES1   0.0000
    18 C9       2.2069   5.6674   3.0238   C.ar      1 RES1   0.0000
    19 H5       2.5561   6.3980   3.5203   H         1 RES1   0.0000
    20 C10      1.9024   5.8188   1.6803   C.ar      1 RES1   0.0000
    21 H6       2.0499   6.6538   1.2521   H         1 RES1   0.0000
    22 C11      1.3863   4.7590   0.9630   C.ar      1 RES1   0.0000
    23 H7       1.1853   4.8700   0.0412   H         1 RES1   0.0000
    24 C12      1.1575   3.5319   1.5741   C.ar      1 RES1   0.0000
    25 H8       0.7908   2.8116   1.0762   H         1 RES1   0.0000
    26 C13      1.4685   3.3636   2.9161   C.ar      1 RES1   0.0000
    27 H9       1.3210   2.5257   3.3380   H         1 RES1   0.0000
    28 C14      1.7101   6.3482   6.0517   C.ar      1 RES1   0.0000
    29 C15      0.3419   6.3707   5.8187   C.ar      1 RES1   0.0000
    30 H10     -0.1396   5.5621   5.6901   H         1 RES1   0.0000
    31 C16     -0.3157   7.5988   5.7756   C.ar      1 RES1   0.0000
    32 H11     -1.2523   7.6223   5.6156   H         1 RES1   0.0000
    33 C17      0.3723   8.7855   5.9618   C.ar      1 RES1   0.0000
    34 C18      1.7514   8.7357   6.1659   C.ar      1 RES1   0.0000
    35 H12      2.2375   9.5443   6.2766   H         1 RES1   0.0000
    36 C19      2.4243   7.5226   6.2095   C.ar      1 RES1   0.0000
    37 H13      3.3639   7.4982   6.3463   H         1 RES1   0.0000
    38 C20     -0.3439  10.1104   5.9643   C.3       1 RES1   0.0000
    39 H14      0.3041  10.8317   6.1086   H         1 RES1   0.0000
    40 H15     -0.7916  10.2421   5.1021   H         1 RES1   0.0000
    41 H16     -1.0109  10.1208   6.6823   H         1 RES1   0.0000
    42 N5       3.2416   1.3494   8.7081   N.1       1 RES1   0.0000
    43 C21      2.3742   0.7795   9.2109   C.1       1 RES1   0.0000
    44 B1       1.1635   0.0132   9.8978   B         1 RES1  -1.0000
    45 H17      0.6804   0.6281  10.4895   H         1 RES1   0.0000
    46 H18      1.5085  -0.7400  10.4213   H         1 RES1   0.0000
    47 H19      0.5534  -0.3207   9.2072   H         1 RES1   0.0000
    48 N1E      5.2467   0.7626   6.8026   N.ar      1 RES1   0.0000
    49 N2E      5.9274   1.4124   9.1727   N.2       1 RES1   0.0000
    50 N3E      6.3065   1.6014  10.4735   N.2       1 RES1   0.0000
    51 N4E      7.0264  -0.3790   9.7853   N.pl3     1 RES1   0.0000
    52 C1E      4.9303   0.5689   5.5094   C.ar      1 RES1   0.0000
    53 H1E      4.3857   1.2140   5.0736   H         1 RES1   0.0000
    54 C2E      5.3643  -0.5322   4.7832   C.ar      1 RES1   0.0000
    55 H2E      5.1230  -0.6319   3.8690   H         1 RES1   0.0000
    56 C3E      6.1517  -1.4820   5.4074   C.ar      1 RES1   0.0000
    57 H3E      6.4525  -2.2474   4.9325   H         1 RES1   0.0000
    58 C4E      6.4984  -1.2995   6.7456   C.ar      1 RES1   0.0000
    59 H4E      7.0371  -1.9371   7.2006   H         1 RES1   0.0000
    60 C5E      6.0393  -0.1664   7.3962   C.ar      1 RES1   0.0000
    61 C6E      6.3522   0.2341   8.7641   C.2       1 RES1   0.0000
    62 C7E      6.9616   0.5134  10.8349   C.2       1 RES1   0.0000
    63 C8E      7.4327   0.2727  12.2068   C.ar      1 RES1   0.0000
    64 C9E      7.2240  -0.9657  12.8261   C.ar      1 RES1   0.0000
    65 H5E      6.8747  -1.6964  12.3297   H         1 RES1   0.0000
    66 C10E     7.5284  -1.1171  14.1697   C.ar      1 RES1   0.0000
    67 H6E      7.3809  -1.9521  14.5978   H         1 RES1   0.0000
    68 C11E     8.0445  -0.0574  14.8869   C.ar      1 RES1   0.0000
    69 H7E      8.2456  -0.1683  15.8087   H         1 RES1   0.0000
    70 C12E     8.2734   1.1698  14.2759   C.ar      1 RES1   0.0000
    71 H8E      8.6400   1.8901  14.7737   H         1 RES1   0.0000
    72 C13E     7.9623   1.3381  12.9339   C.ar      1 RES1   0.0000
    73 H9E      8.1098   2.1759  12.5119   H         1 RES1   0.0000
    74 C14E     7.7207  -1.6465   9.7983   C.ar      1 RES1   0.0000
    75 C15E     9.0889  -1.6691  10.0313   C.ar      1 RES1   0.0000
    76 H10E     9.5704  -0.8604  10.1598   H         1 RES1   0.0000
    77 C16E     9.7465  -2.8972  10.0744   C.ar      1 RES1   0.0000
    78 H11E    10.6832  -2.9207  10.2343   H         1 RES1   0.0000
    79 C17E     9.0585  -4.0839   9.8881   C.ar      1 RES1   0.0000
    80 C18E     7.6794  -4.0340   9.6840   C.ar      1 RES1   0.0000
    81 H12E     7.1933  -4.8427   9.5734   H         1 RES1   0.0000
    82 C19E     7.0065  -2.8210   9.6404   C.ar      1 RES1   0.0000
    83 H13E     6.0669  -2.7965   9.5036   H         1 RES1   0.0000
    84 C20E     9.7747  -5.4088   9.8856   C.3       1 RES1   0.0000
    85 H14E     9.1267  -6.1300   9.7414   H         1 RES1   0.0000
    86 H15E    10.2225  -5.5404  10.7478   H         1 RES1   0.0000
    87 H16E    10.4417  -5.4191   9.1676   H         1 RES1   0.0000
    88 N5E      6.1892   3.3523   7.1418   N.1       1 RES1   0.0000
    89 C21E     7.0566   3.9221   6.6391   C.1       1 RES1   0.0000
    90 B1E      8.2674   4.6885   5.9521   B         1 RES1  -1.0000
    91 H17E     8.7505   4.0735   5.3604   H         1 RES1   0.0000
    92 H18E     7.9224   5.4417   5.4286   H         1 RES1   0.0000
    93 H19E     8.8774   5.0223   6.6427   H         1 RES1   0.0000
@<TRIPOS>BOND
     1     1     2    1
     2     2     6   ar
     3     3     1    1
     4     4     3    1
     5     5    15    1
     6     6     7    1
     7     8     6   ar
     8     9     8    1
     9    10     8   ar
    10    11    10    1
    11    12    10   ar
    12    13    12    1
    13    14     2   ar
    14    15     3    2
    15    16     4    2
    16    17    16    1
    17    18    17   ar
    18    19    18    1
    19    20    18   ar
    20    21    20    1
    21    22    20   ar
    22    23    22    1
    23    24    22   ar
    24    25    24    1
    25    26    17   ar
    26    27    26    1
    27    28     5    1
    28    29    28   ar
    29    30    29    1
    30    31    29   ar
    31    32    31    1
    32    33    31   ar
    33    34    33   ar
    34    35    34    1
    35    36    28   ar
    36    37    36    1
    37    38    33    1
    38    39    38    1
    39    40    38    1
    40    41    38    1
    41    42     1    1
    42    43    42    3
    43    44    43    1
    44    45    44    1
    45    46    44    1
    46    47    44    1
    47    48     1    1
    48    49     1    1
    49    50    49    1
    50    51    61    1
    51    52    48   ar
    52    53    52    1
    53    54    52   ar
    54    55    54    1
    55    56    54   ar
    56    57    56    1
    57    58    56   ar
    58    59    58    1
    59    60    48   ar
    60    61    49    2
    61    62    50    2
    62    63    62    1
    63    64    63   ar
    64    65    64    1
    65    66    64   ar
    66    67    66    1
    67    68    66   ar
    68    69    68    1
    69    70    68   ar
    70    71    70    1
    71    72    63   ar
    72    73    72    1
    73    74    51    1
    74    75    74   ar
    75    76    75    1
    76    77    75   ar
    77    78    77    1
    78    79    77   ar
    79    80    79   ar
    80    81    80    1
    81    82    74   ar
    82    83    82    1
    83    84    79    1
    84    85    84    1
    85    86    84    1
    86    87    84    1
    87    88     1    1
    88    89    88    3
    89    90    89    1
    90    91    90    1
    91    92    90    1
    92    93    90    1
    93     5    16    1
    94    12    14   ar
    95    14    15    1
    96    24    26   ar
    97    34    36   ar
    98    51    62    1
    99    58    60   ar
   100    60    61    1
   101    70    72   ar
   102    80    82   ar
@<TRIPOS>SUBSTRUCTURE
     1 RES1        1 GROUP             0 ****  ****    0  
@<TRIPOS>CRYSIN
   25.2886    9.4033   16.1724   90.0000  101.4610   90.0000    15     1
