@<TRIPOS>MOLECULE
ZERFEK
    85    91     2     0     0
SMALL
USER_CHARGES
****
Generated from the CSD

@<TRIPOS>ATOM
     1 Fe1      8.9110  10.9297   3.6558   Fe        1 RES1   1.0000
     2 S1       8.9880   8.5929   2.5074   S.3       1 RES1   0.0000
     3 S2       9.5398  12.7182   5.5183   S.3       1 RES1   0.0000
     4 S3       6.7483  10.8988   4.9490   S.3       1 RES1   0.0000
     5 S4      10.9480  11.6785   2.3392   S.3       1 RES1   0.0000
     6 N1       9.8703   9.4296   5.0713   N.pl3     1 RES1   0.0000
     7 H1      10.5588   9.0855   4.6728   H         1 RES1   0.0000
     8 N2       7.8585  12.1659   2.4912   N.2       1 RES1   0.0000
     9 C1       8.3938   7.8243   3.9893   C.ar      1 RES1   0.0000
    10 C2       8.9067   8.3458   5.1858   C.ar      1 RES1   0.0000
    11 C3       8.4259   7.8731   6.3929   C.ar      1 RES1   0.0000
    12 H2       8.7513   8.2321   7.2097   H         1 RES1   0.0000
    13 C4       7.4649   6.8697   6.4051   C.ar      1 RES1   0.0000
    14 H3       7.1345   6.5486   7.2364   H         1 RES1   0.0000
    15 C5       6.9860   6.3364   5.2359   C.ar      1 RES1   0.0000
    16 H4       6.3368   5.6427   5.2609   H         1 RES1   0.0000
    17 C6       7.4492   6.8094   4.0151   C.ar      1 RES1   0.0000
    18 H5       7.1217   6.4406   3.2038   H         1 RES1   0.0000
    19 C7       7.6797   8.3183   1.2986   C.3       1 RES1   0.0000
    20 H6       7.9365   8.7183   0.4418   H         1 RES1   0.0000
    21 H7       7.5417   7.3552   1.1805   H         1 RES1   0.0000
    22 H8       6.8494   8.7305   1.6167   H         1 RES1   0.0000
    23 C8      10.3880   9.9496   6.3679   C.3       1 RES1   0.0000
    24 H9      10.7262   9.1980   6.9156   H         1 RES1   0.0000
    25 H10      9.6542  10.3888   6.8664   H         1 RES1   0.0000
    26 C9      11.2365  12.2486   5.6798   C.ar      1 RES1   0.0000
    27 C10     11.4974  10.9383   6.1236   C.ar      1 RES1   0.0000
    28 C11     12.8150  10.5599   6.3334   C.ar      1 RES1   0.0000
    29 H11     13.0038   9.6875   6.6595   H         1 RES1   0.0000
    30 C12     13.8595  11.4309   6.0751   C.ar      1 RES1   0.0000
    31 H12     14.7575  11.1571   6.2234   H         1 RES1   0.0000
    32 C13     13.5904  12.7007   5.5992   C.ar      1 RES1   0.0000
    33 H13     14.3069  13.2930   5.4016   H         1 RES1   0.0000
    34 C14     12.2875  13.1134   5.4094   C.ar      1 RES1   0.0000
    35 H14     12.1091  13.9906   5.0921   H         1 RES1   0.0000
    36 C15      9.6178  14.3502   4.7614   C.3       1 RES1   0.0000
    37 H15      8.7090  14.6938   4.6320   H         1 RES1   0.0000
    38 H16     10.1174  14.9576   5.3454   H         1 RES1   0.0000
    39 H17     10.0697  14.2870   3.8947   H         1 RES1   0.0000
    40 C16      6.4940  12.5832   4.4378   C.ar      1 RES1   0.0000
    41 C17      7.0526  13.0180   3.1978   C.ar      1 RES1   0.0000
    42 C18      6.7426  14.3466   2.8238   C.ar      1 RES1   0.0000
    43 H18      7.0470  14.6748   1.9853   H         1 RES1   0.0000
    44 C19      6.0068  15.1811   3.6495   C.ar      1 RES1   0.0000
    45 H19      5.8066  16.0637   3.3614   H         1 RES1   0.0000
    46 C20      5.5578  14.7531   4.8851   C.ar      1 RES1   0.0000
    47 H20      5.0892  15.3465   5.4607   H         1 RES1   0.0000
    48 C21      5.8028  13.4454   5.2694   C.ar      1 RES1   0.0000
    49 H21      5.4927  13.1377   6.1136   H         1 RES1   0.0000
    50 C22      5.5239  10.0293   3.9359   C.3       1 RES1   0.0000
    51 H22      5.5638   9.0690   4.1283   H         1 RES1   0.0000
    52 H23      4.6284  10.3679   4.1437   H         1 RES1   0.0000
    53 H24      5.7179  10.1806   2.9872   H         1 RES1   0.0000
    54 C23      8.3325  12.6874   1.2020   C.3       1 RES1   0.0000
    55 H25      8.9399  13.4518   1.3662   H         1 RES1   0.0000
    56 H26      7.5582  13.0224   0.6838   H         1 RES1   0.0000
    57 C24     10.2886  11.1134   0.7909   C.ar      1 RES1   0.0000
    58 C25      9.0576  11.6501   0.3858   C.ar      1 RES1   0.0000
    59 C26      8.5255  11.2235  -0.8259   C.ar      1 RES1   0.0000
    60 H27      7.6932  11.5753  -1.1186   H         1 RES1   0.0000
    61 C27      9.1893  10.2916  -1.6163   C.ar      1 RES1   0.0000
    62 H28      8.8164  10.0191  -2.4454   H         1 RES1   0.0000
    63 C28     10.3899   9.7673  -1.1936   C.ar      1 RES1   0.0000
    64 H29     10.8398   9.1260  -1.7307   H         1 RES1   0.0000
    65 C29     10.9459  10.1672   0.0104   C.ar      1 RES1   0.0000
    66 H30     11.7710   9.7980   0.3011   H         1 RES1   0.0000
    67 C30     12.3888  10.6357   2.5919   C.3       1 RES1   0.0000
    68 H31     12.8245  10.8792   3.4360   H         1 RES1   0.0000
    69 H32     12.1103   9.6970   2.6270   H         1 RES1   0.0000
    70 H33     13.0180  10.7623   1.8517   H         1 RES1   0.0000
    71 S5      10.0370   4.7029  -3.8805   S.o2      2 RES2   0.0000
    72 S6       8.5505   4.2405  -1.5513   S.o2      2 RES2   0.0000
    73 F1      11.1974   6.8334  -4.7500   F         2 RES2   0.0000
    74 F2      10.1381   7.1089  -2.9192   F         2 RES2   0.0000
    75 F3      12.0051   6.0975  -2.9189   F         2 RES2   0.0000
    76 F4       9.9134   5.9559  -0.1316   F         2 RES2   0.0000
    77 F5       8.4178   4.8826   0.9505   F         2 RES2   0.0000
    78 F6      10.2261   3.9019   0.4255   F         2 RES2   0.0000
    79 N3       9.8265   4.0991  -2.4604   N.2       2 RES2  -1.0000
    80 O1       8.8555   5.0766  -4.5813   O.2       2 RES2   0.0000
    81 O2      11.0073   3.9223  -4.5801   O.2       2 RES2   0.0000
    82 O3       7.6376   5.2684  -1.8843   O.2       2 RES2   0.0000
    83 O4       8.0348   2.9543  -1.2319   O.2       2 RES2   0.0000
    84 C31     10.9006   6.2721  -3.5920   C.3       2 RES2   0.0000
    85 C32      9.3497   4.7788   0.0073   C.3       2 RES2   0.0000
@<TRIPOS>BOND
     1     1     2    1
     2     2     9    1
     3     3     1    1
     4     4     1    1
     5     5     1    1
     6     6     1    1
     7     7     6    1
     8     8     1    1
     9     9    10   ar
    10    10     6    1
    11    11    10   ar
    12    12    11    1
    13    13    11   ar
    14    14    13    1
    15    15    13   ar
    16    16    15    1
    17    17     9   ar
    18    18    17    1
    19    19     2    1
    20    20    19    1
    21    21    19    1
    22    22    19    1
    23    23     6    1
    24    24    23    1
    25    25    23    1
    26    26     3    1
    27    27    23    1
    28    28    27   ar
    29    29    28    1
    30    30    28   ar
    31    31    30    1
    32    32    30   ar
    33    33    32    1
    34    34    26   ar
    35    35    34    1
    36    36     3    1
    37    37    36    1
    38    38    36    1
    39    39    36    1
    40    40     4    1
    41    41     8    1
    42    42    41   ar
    43    43    42    1
    44    44    42   ar
    45    45    44    1
    46    46    44   ar
    47    47    46    1
    48    48    40   ar
    49    49    48    1
    50    50     4    1
    51    51    50    1
    52    52    50    1
    53    53    50    1
    54    54     8    1
    55    55    54    1
    56    56    54    1
    57    57     5    1
    58    58    54    1
    59    59    58   ar
    60    60    59    1
    61    61    59   ar
    62    62    61    1
    63    63    61   ar
    64    64    63    1
    65    65    57   ar
    66    66    65    1
    67    67     5    1
    68    68    67    1
    69    69    67    1
    70    70    67    1
    71    15    17   ar
    72    26    27   ar
    73    32    34   ar
    74    40    41   ar
    75    46    48   ar
    76    57    58   ar
    77    63    65   ar
    78    71    79    1
    79    72    79    1
    80    73    84    1
    81    74    84    1
    82    75    84    1
    83    76    85    1
    84    77    85    1
    85    78    85    1
    86    80    71    2
    87    81    71    2
    88    82    72    2
    89    83    72    2
    90    84    71    1
    91    85    72    1
@<TRIPOS>SUBSTRUCTURE
     1 RES1        1 GROUP             0 ****  ****    0  
     2 RES2       71 GROUP             0 ****  ****    0  
@<TRIPOS>CRYSIN
   11.2174   11.6637   14.6386   73.9890   89.1750   85.6900     2     1
