@<TRIPOS>MOLECULE
ZESYON
    82    88     2     0     0
SMALL
USER_CHARGES
****
Generated from the CSD

@<TRIPOS>ATOM
     1 C1       2.2830   3.0830  15.1504   C.ar      1 RES1   0.0000
     2 C2       5.5295   2.2126  18.0501   C.ar      1 RES1   0.0000
     3 C3       2.3938   3.0699  13.7562   C.ar      1 RES1   0.0000
     4 H1       1.7222   2.6927  13.2335   H         1 RES1   0.0000
     5 C4       6.5524   1.2770  17.9550   C.ar      1 RES1   0.0000
     6 H2       7.4045   1.4811  18.2667   H         1 RES1   0.0000
     7 C5       3.4961   3.6137  13.1754   C.ar      1 RES1   0.0000
     8 H3       3.5934   3.5876  12.2520   H         1 RES1   0.0000
     9 C6       6.3023   0.0539  17.3995   C.ar      1 RES1   0.0000
    10 H4       6.9843  -0.5764  17.3317   H         1 RES1   0.0000
    11 C7       4.4733   4.2081  13.9536   C.ar      1 RES1   0.0000
    12 H5       5.2220   4.5968  13.5607   H         1 RES1   0.0000
    13 C8       5.0405  -0.2482  16.9387   C.ar      1 RES1   0.0000
    14 H6       4.8570  -1.0761  16.5574   H         1 RES1   0.0000
    15 C9       4.3157   4.2114  15.3165   C.ar      1 RES1   0.0000
    16 H7       4.9694   4.6098  15.8450   H         1 RES1   0.0000
    17 C10      4.0443   0.7185  17.0570   C.ar      1 RES1   0.0000
    18 H8       3.1912   0.5291  16.7393   H         1 RES1   0.0000
    19 C11      1.1758   2.5343  15.9096   C.2       1 RES1   0.0000
    20 C12      5.6510   3.5255  18.6384   C.2       1 RES1   0.0000
    21 C13     -0.0477   1.9563  15.2880   C.ar      1 RES1   0.0000
    22 C14      6.9180   4.0056  19.2594   C.ar      1 RES1   0.0000
    23 C15      0.0235   0.8116  14.5104   C.ar      1 RES1   0.0000
    24 H9       0.8488   0.4115  14.3544   H         1 RES1   0.0000
    25 C16      8.0041   4.3436  18.4824   C.ar      1 RES1   0.0000
    26 H10      7.9405   4.3094  17.5543   H         1 RES1   0.0000
    27 C17     -1.1141   0.2629  13.9691   C.ar      1 RES1   0.0000
    28 H11     -1.0446  -0.5111  13.4561   H         1 RES1   0.0000
    29 C18      9.1874   4.7356  19.0778   C.ar      1 RES1   0.0000
    30 H12      9.9108   4.9658  18.5416   H         1 RES1   0.0000
    31 C19     -2.3518   0.8295  14.1646   C.ar      1 RES1   0.0000
    32 C20      9.3237   4.7927  20.4484   C.ar      1 RES1   0.0000
    33 C21     -2.4118   1.9971  14.9274   C.ar      1 RES1   0.0000
    34 H13     -3.2314   2.4168  15.0551   H         1 RES1   0.0000
    35 C22      8.2310   4.4547  21.2189   C.ar      1 RES1   0.0000
    36 H14      8.2958   4.4873  22.1462   H         1 RES1   0.0000
    37 C23     -1.2732   2.5425  15.4946   C.ar      1 RES1   0.0000
    38 H15     -1.3382   3.3084  16.0192   H         1 RES1   0.0000
    39 C24      7.0387   4.0677  20.6304   C.ar      1 RES1   0.0000
    40 H16      6.3109   3.8472  21.1666   H         1 RES1   0.0000
    41 C25      0.7829   2.1375  19.3144   C.2       1 RES1   0.0000
    42 C26      3.3643   6.0582  19.0643   C.2       1 RES1   0.0000
    43 C27     -1.4315   1.2982  19.8638   C.3       1 RES1   0.0000
    44 H17     -1.9174   1.0320  20.6478   H         1 RES1   0.0000
    45 H18     -1.3730   0.5585  19.2559   H         1 RES1   0.0000
    46 H19     -1.8864   2.0281  19.4360   H         1 RES1   0.0000
    47 C28      1.9626   7.9933  19.5483   C.3       1 RES1   0.0000
    48 H20      2.0239   8.8000  20.0671   H         1 RES1   0.0000
    49 H21      1.2253   7.4658  19.8657   H         1 RES1   0.0000
    50 H22      1.8252   8.2154  18.6249   H         1 RES1   0.0000
    51 C29      0.2686   1.5562  21.6487   C.3       1 RES1   0.0000
    52 H23     -0.4971   1.2508  22.1384   H         1 RES1   0.0000
    53 H24      0.5617   2.3988  22.0049   H         1 RES1   0.0000
    54 H25      0.9770   0.9128  21.7261   H         1 RES1   0.0000
    55 C30      4.2123   7.7892  20.5568   C.3       1 RES1   0.0000
    56 H26      3.9108   8.6285  20.9111   H         1 RES1   0.0000
    57 H27      5.0194   7.9247  20.0554   H         1 RES1   0.0000
    58 H28      4.3815   7.1784  21.2770   H         1 RES1   0.0000
    59 C31     -3.6055   0.2417  13.5471   C.3       1 RES1   0.0000
    60 H29     -4.3639   0.7757  13.7949   H         1 RES1   0.0000
    61 H30     -3.7281  -0.6548  13.8646   H         1 RES1   0.0000
    62 H31     -3.5171   0.2335  12.5908   H         1 RES1   0.0000
    63 C32     10.6119   5.1977  21.1047   C.3       1 RES1   0.0000
    64 H32     10.5068   5.1732  22.0591   H         1 RES1   0.0000
    65 H33     10.8440   6.0876  20.8298   H         1 RES1   0.0000
    66 H34     11.3078   4.5902  20.8433   H         1 RES1   0.0000
    67 N1       3.2603   3.6621  15.9028   N.ar      1 RES1   0.0000
    68 N2       4.2765   1.8972  17.6097   N.ar      1 RES1   0.0000
    69 N3       1.3670   2.6059  17.2128   N.2       1 RES1   0.0000
    70 N4       4.5457   4.2235  18.6132   N.2       1 RES1   0.0000
    71 N5       0.3937   2.1271  18.0466   N.2       1 RES1   0.0000
    72 N6       4.5263   5.4394  19.2242   N.2       1 RES1   0.0000
    73 N7      -0.0878   1.7200  20.2454   N.pl3     1 RES1   0.0000
    74 N8       3.1895   7.2372  19.6857   N.pl3     1 RES1   0.0000
    75 S1       2.3840   2.6333  19.8249   S.3       1 RES1   0.0000
    76 S2       2.0769   5.4105  18.0594   S.3       1 RES1   0.0000
    77 Fe1      2.9913   3.4023  17.8463   Fe        1 RES1   1.0000
    78 O1       2.5585  -1.7766  15.3920   O.3       2 RES2  -1.0000
    79 O2       3.8488  -2.7385  13.8259   O.2       2 RES2   0.0000
    80 O3       1.9616  -1.8877  13.1561   O.2       2 RES2   0.0000
    81 O4       3.4304  -0.4589  14.0117   O.2       2 RES2   0.0000
    82 Cl1      2.9846  -1.8181  14.0775   Cl        2 RES2   0.0000
@<TRIPOS>BOND
     1     1     3   ar
     2     2     5   ar
     3     3     4    1
     4     5     6    1
     5     7     3   ar
     6     8     7    1
     7     9     5   ar
     8    10     9    1
     9    11     7   ar
    10    12    11    1
    11    13     9   ar
    12    14    13    1
    13    15    11   ar
    14    16    15    1
    15    17    13   ar
    16    18    17    1
    17    19     1    1
    18    20     2    1
    19    21    19    1
    20    22    20    1
    21    23    21   ar
    22    24    23    1
    23    25    22   ar
    24    26    25    1
    25    27    23   ar
    26    28    27    1
    27    29    25   ar
    28    30    29    1
    29    31    27   ar
    30    32    29   ar
    31    33    31   ar
    32    34    33    1
    33    35    32   ar
    34    36    35    1
    35    37    21   ar
    36    38    37    1
    37    39    22   ar
    38    40    39    1
    39    41    71    2
    40    42    72    2
    41    43    44    1
    42    45    43    1
    43    46    43    1
    44    47    48    1
    45    49    47    1
    46    50    47    1
    47    51    52    1
    48    53    51    1
    49    54    51    1
    50    55    56    1
    51    57    55    1
    52    58    55    1
    53    59    31    1
    54    60    59    1
    55    61    59    1
    56    62    59    1
    57    63    32    1
    58    64    63    1
    59    65    63    1
    60    66    63    1
    61    67     1   ar
    62    68     2   ar
    63    69    19    2
    64    70    20    2
    65    71    69    1
    66    72    70    1
    67    73    41    1
    68    74    42    1
    69    75    41    1
    70    76    42    1
    71    77    67    1
    72    15    67   ar
    73    17    68   ar
    74    33    37   ar
    75    35    39   ar
    76    43    73    1
    77    47    74    1
    78    51    73    1
    79    55    74    1
    80    68    77    1
    81    69    77    1
    82    70    77    1
    83    75    77    1
    84    76    77    1
    85    78    82    1
    86    79    82    2
    87    80    82    2
    88    81    82    2
@<TRIPOS>SUBSTRUCTURE
     1 RES1        1 GROUP             0 ****  ****    0  
     2 RES2       78 GROUP             0 ****  ****    0  
@<TRIPOS>CRYSIN
   11.1769   16.3295   19.3586   90.0000   90.1410   90.0000    14     1
