@<TRIPOS>MOLECULE
ZETBUX
    92   103     2     0     0
SMALL
NO_CHARGES
****
Generated from the CSD

@<TRIPOS>ATOM
     1 Fe1     -2.4541   3.8048   4.4861   Fe        1 RES1   0.0000
     2 O1       0.1260   2.4556   4.3790   O.3       1 RES1   0.0000
     3 O2       0.2266   4.8854   4.8465   O.3       1 RES1   0.0000
     4 O3      -0.2718   4.0796   2.5700   O.3       1 RES1   0.0000
     5 N1      -1.2416   2.3298   4.5265   N.2       1 RES1   0.0000
     6 N2      -1.0674   4.8124   5.3304   N.2       1 RES1   0.0000
     7 N3      -1.6117   4.2930   2.8401   N.2       1 RES1   0.0000
     8 N4       4.8697   3.8958   2.9905   N.ar      1 RES1   0.0000
     9 B1       0.4978   3.7978   3.8281   B         1 RES1   0.0000
    10 C1      -1.7269   1.1116   4.4547   C.2       1 RES1   0.0000
    11 C2      -0.9268  -0.1413   4.2886   C.3       1 RES1   0.0000
    12 H1      -0.4048  -0.3109   5.1124   H         1 RES1   0.0000
    13 H2      -0.2920  -0.0309   3.5369   H         1 RES1   0.0000
    14 C3      -1.8487  -1.3384   4.0101   C.3       1 RES1   0.0000
    15 H3      -1.3394  -2.1794   4.1255   H         1 RES1   0.0000
    16 H4      -2.1675  -1.2981   3.0739   H         1 RES1   0.0000
    17 C4      -1.2899   5.3205   6.5185   C.2       1 RES1   0.0000
    18 C5      -0.3014   6.1158   7.3201   C.3       1 RES1   0.0000
    19 H5      -0.1428   6.9868   6.8782   H         1 RES1   0.0000
    20 H6       0.5589   5.6288   7.3591   H         1 RES1   0.0000
    21 C6      -0.8223   6.3537   8.7482   C.3       1 RES1   0.0000
    22 H7      -0.7062   5.5248   9.2773   H         1 RES1   0.0000
    23 H8      -0.2814   7.0645   9.1769   H         1 RES1   0.0000
    24 C7      -2.2674   5.0617   2.0033   C.2       1 RES1   0.0000
    25 C8      -1.7134   5.6260   0.7293   C.3       1 RES1   0.0000
    26 H9      -1.6527   4.9095   0.0485   H         1 RES1   0.0000
    27 H10     -0.8008   5.9725   0.8918   H         1 RES1   0.0000
    28 C9      -2.6074   6.7639   0.1995   C.3       1 RES1   0.0000
    29 H11     -2.4790   7.5712   0.7573   H         1 RES1   0.0000
    30 H12     -2.3418   6.9877  -0.7285   H         1 RES1   0.0000
    31 C10      2.0602   3.8122   3.4945   C.ar      1 RES1   0.0000
    32 C11      2.6914   4.9573   2.9897   C.ar      1 RES1   0.0000
    33 H13      2.1809   5.7356   2.7994   H         1 RES1   0.0000
    34 C12      4.0701   4.9535   2.7656   C.ar      1 RES1   0.0000
    35 H14      4.4695   5.7487   2.4333   H         1 RES1   0.0000
    36 C13      4.2598   2.7872   3.4481   C.ar      1 RES1   0.0000
    37 H15      4.7910   2.0155   3.6051   H         1 RES1   0.0000
    38 C14      2.8904   2.7048   3.7066   C.ar      1 RES1   0.0000
    39 H16      2.5183   1.8919   4.0286   H         1 RES1   0.0000
    40 O1A     -5.0342   2.4556   4.5933   O.3       1 RES1   0.0000
    41 O2A     -5.1347   4.8854   4.1258   O.3       1 RES1   0.0000
    42 O3A     -4.6363   4.0796   6.4023   O.3       1 RES1   0.0000
    43 N1A     -3.6665   2.3298   4.4458   N.2       1 RES1   0.0000
    44 N2A     -3.8407   4.8124   3.6419   N.2       1 RES1   0.0000
    45 N3A     -3.2964   4.2930   6.1322   N.2       1 RES1   0.0000
    46 N4A     -9.7778   3.8958   5.9818   N.ar      1 RES1   0.0000
    47 B1A     -5.4059   3.7978   5.1442   B         1 RES1   0.0000
    48 C1A     -3.1812   1.1116   4.5175   C.2       1 RES1   0.0000
    49 C2A     -3.9814  -0.1413   4.6837   C.3       1 RES1   0.0000
    50 H1A     -4.5033  -0.3109   3.8599   H         1 RES1   0.0000
    51 H2A     -4.6161  -0.0309   5.4354   H         1 RES1   0.0000
    52 C3A     -3.0594  -1.3384   4.9622   C.3       1 RES1   0.0000
    53 H3A     -3.5687  -2.1794   4.8468   H         1 RES1   0.0000
    54 H4A     -2.7406  -1.2981   5.8984   H         1 RES1   0.0000
    55 C4A     -3.6182   5.3205   2.4537   C.2       1 RES1   0.0000
    56 C5A     -4.6067   6.1158   1.6522   C.3       1 RES1   0.0000
    57 H5A     -4.7653   6.9868   2.0941   H         1 RES1   0.0000
    58 H6A     -5.4670   5.6288   1.6132   H         1 RES1   0.0000
    59 C6A     -4.0858   6.3537   0.2241   C.3       1 RES1   0.0000
    60 H7A     -4.2020   5.5248  -0.3051   H         1 RES1   0.0000
    61 H8A     -4.6267   7.0645  -0.2046   H         1 RES1   0.0000
    62 C7A     -2.6407   5.0617   6.9690   C.2       1 RES1   0.0000
    63 C8A     -3.1947   5.6260   8.2430   C.3       1 RES1   0.0000
    64 H9A     -3.2554   4.9095   8.9238   H         1 RES1   0.0000
    65 H10A    -4.1073   5.9725   8.0804   H         1 RES1   0.0000
    66 C9A     -2.3007   6.7639   8.7727   C.3       1 RES1   0.0000
    67 H11A    -2.4292   7.5712   8.2150   H         1 RES1   0.0000
    68 H12A    -2.5664   6.9877   9.7008   H         1 RES1   0.0000
    69 C10A    -6.9683   3.8122   5.4778   C.ar      1 RES1   0.0000
    70 C11A    -7.5995   4.9573   5.9825   C.ar      1 RES1   0.0000
    71 H13A    -7.0890   5.7356   6.1729   H         1 RES1   0.0000
    72 C12A    -8.9782   4.9535   6.2067   C.ar      1 RES1   0.0000
    73 H14A    -9.3776   5.7487   6.5390   H         1 RES1   0.0000
    74 C13A    -9.1679   2.7872   5.5242   C.ar      1 RES1   0.0000
    75 H15A    -9.6991   2.0155   5.3672   H         1 RES1   0.0000
    76 C14A    -7.7986   2.7048   5.2657   C.ar      1 RES1   0.0000
    77 H16A    -7.4264   1.8919   4.9437   H         1 RES1   0.0000
    78 C15     -3.6259   1.1033   0.1143   C.ar      2 RES2   0.0000
    79 C16     -3.4774   0.7624  -1.2292   C.ar      2 RES2   0.0000
    80 H17     -4.2398   0.5029  -1.7352   H         2 RES2   0.0000
    81 C17     -2.2290   0.7961  -1.8377   C.ar      2 RES2   0.0000
    82 H18     -2.1424   0.5591  -2.7527   H         2 RES2   0.0000
    83 C18     -1.1056   1.1773  -1.1111   C.ar      2 RES2   0.0000
    84 H19     -0.2499   1.1848  -1.5235   H         2 RES2   0.0000
    85 C19     -1.2428   1.5463   0.2191   C.ar      2 RES2   0.0000
    86 H20     -0.4817   1.8235   0.7160   H         2 RES2   0.0000
    87 C20     -2.4923   1.5088   0.8215   C.ar      2 RES2   0.0000
    88 H21     -2.5792   1.7636   1.7334   H         2 RES2   0.0000
    89 C21     -4.9696   1.0077   0.8091   C.3       2 RES2   0.0000
    90 H22     -5.6867   1.0967   0.1471   H         2 RES2   0.0000
    91 H23     -5.0458   1.7261   1.4715   H         2 RES2   0.0000
    92 H24     -5.0451   0.1395   1.2579   H         2 RES2   0.0000
@<TRIPOS>BOND
     1     1     5    1
     2     2     5    1
     3     3     6    1
     4     4     7    1
     5     5    10    2
     6     6     1    1
     7     7     1    1
     8     8    34   ar
     9     9     2    1
    10    10    11    1
    11    11    12    1
    12    13    11    1
    13    14    11    1
    14    15    14    1
    15    16    14    1
    16    17     6    2
    17    18    17    1
    18    19    18    1
    19    20    18    1
    20    21    18    1
    21    22    21    1
    22    23    21    1
    23    24     7    2
    24    25    24    1
    25    26    25    1
    26    27    25    1
    27    28    25    1
    28    29    28    1
    29    30    28    1
    30    31     9    1
    31    32    31   ar
    32    33    32    1
    33    34    32   ar
    34    35    34    1
    35    36     8   ar
    36    37    36    1
    37    38    31   ar
    38    39    38    1
    39    40    43    1
    40    41    44    1
    41    42    45    1
    42    43     1    1
    43    44     1    1
    44    45     1    1
    45    46    72   ar
    46    47    40    1
    47    48    10    1
    48    49    48    1
    49    50    49    1
    50    51    49    1
    51    52    14    1
    52    53    52    1
    53    54    52    1
    54    55    24    1
    55    56    55    1
    56    57    56    1
    57    58    56    1
    58    59    28    1
    59    60    59    1
    60    61    59    1
    61    62    17    1
    62    63    62    1
    63    64    63    1
    64    65    63    1
    65    66    21    1
    66    67    66    1
    67    68    66    1
    68    69    47    1
    69    70    69   ar
    70    71    70    1
    71    72    70   ar
    72    73    72    1
    73    74    46   ar
    74    75    74    1
    75    76    69   ar
    76    77    76    1
    77     3     9    1
    78     4     9    1
    79    36    38   ar
    80    41    47    1
    81    42    47    1
    82    43    48    2
    83    44    55    2
    84    45    62    2
    85    49    52    1
    86    56    59    1
    87    63    66    1
    88    74    76   ar
    89    78    79   ar
    90    79    80    1
    91    81    79   ar
    92    82    81    1
    93    83    81   ar
    94    84    83    1
    95    85    83   ar
    96    86    85    1
    97    87    78   ar
    98    88    87    1
    99    89    78    1
   100    90    89    1
   101    91    89    1
   102    92    89    1
   103    85    87   ar
@<TRIPOS>SUBSTRUCTURE
     1 RES1        1 GROUP             0 ****  ****    0  
     2 RES2       78 GROUP             0 ****  ****    0  
@<TRIPOS>CRYSIN
   23.7050    9.3657   20.4540   90.0000  118.6800   90.0000    15     1
