@<TRIPOS>MOLECULE
ZETQAQ
   123   134     1     0     0
SMALL
USER_CHARGES
****
Generated from the CSD

@<TRIPOS>ATOM
     1 Fe1      2.0718   1.9118  15.4902   Fe        1 RES1   2.0000
     2 C1       0.4089   2.0342  14.8497   C.1       1 RES1   0.0000
     3 O1      -0.6361   2.1051  14.4247   O.2       1 RES1   0.0000
     4 C2       3.7838   1.7963  16.0943   C.1       1 RES1   0.0000
     5 O2       4.8447   1.7285  16.4577   O.2       1 RES1   0.0000
     6 P1       2.8624   2.6905  13.4176   P.3       1 RES1   0.0000
     7 P2       2.4326   0.2483  13.8496   P.3       1 RES1   0.0000
     8 P3       1.3897   0.6881  17.3845   P.3       1 RES1   0.0000
     9 P4       2.2174   2.7441  19.2780   P.3       1 RES1  -1.0000
    10 P5       1.8311   3.8609  16.7395   P.3       1 RES1   0.0000
    11 N1       2.6173   1.2999  12.6002   N.2       1 RES1  -1.0000
    12 N2       1.5247   1.3942  18.8277   N.2       1 RES1   0.0000
    13 N3       2.6065   3.8017  18.1645   N.2       1 RES1   0.0000
    14 C3       0.7665   4.0345  12.1577   C.ar      1 RES1   0.0000
    15 C4       0.1883   5.0016  11.3671   C.ar      1 RES1   0.0000
    16 C5       0.9623   5.9046  10.7102   C.ar      1 RES1   0.0000
    17 C6       2.3049   5.8711  10.8605   C.ar      1 RES1   0.0000
    18 C7       2.8904   4.9123  11.6903   C.ar      1 RES1   0.0000
    19 C8       2.1282   3.9986  12.3645   C.ar      1 RES1   0.0000
    20 C9       5.4704   2.3546  12.5751   C.ar      1 RES1   0.0000
    21 C10      6.8374   2.6498  12.5500   C.ar      1 RES1   0.0000
    22 C11      7.3379   3.6752  13.2703   C.ar      1 RES1   0.0000
    23 C12      6.5327   4.4338  14.0369   C.ar      1 RES1   0.0000
    24 C13      5.1877   4.1302  14.0793   C.ar      1 RES1   0.0000
    25 C14      4.6421   3.1067  13.3573   C.ar      1 RES1   0.0000
    26 C15      0.0577  -0.4066  12.5847   C.ar      1 RES1   0.0000
    27 C16     -1.0115  -1.2304  12.2464   C.ar      1 RES1   0.0000
    28 C17     -1.0211  -2.5377  12.6344   C.ar      1 RES1   0.0000
    29 C18      0.0493  -3.0439  13.3501   C.ar      1 RES1   0.0000
    30 C19      1.0994  -2.2346  13.7252   C.ar      1 RES1   0.0000
    31 C20      1.1122  -0.9080  13.3402   C.ar      1 RES1   0.0000
    32 C21      4.4405  -1.1904  12.6173   C.ar      1 RES1   0.0000
    33 C22      5.4208  -2.1389  12.5139   C.ar      1 RES1   0.0000
    34 C23      5.8667  -2.8024  13.6365   C.ar      1 RES1   0.0000
    35 C24      5.3380  -2.4901  14.8536   C.ar      1 RES1   0.0000
    36 C25      4.3550  -1.5287  14.9629   C.ar      1 RES1   0.0000
    37 C26      3.8643  -0.8976  13.8457   C.ar      1 RES1   0.0000
    38 C27     -1.1602   0.2733  18.4498   C.ar      1 RES1   0.0000
    39 C28     -2.4946  -0.0902  18.4039   C.ar      1 RES1   0.0000
    40 C29     -3.0459  -0.5797  17.2444   C.ar      1 RES1   0.0000
    41 C30     -2.2647  -0.7478  16.1330   C.ar      1 RES1   0.0000
    42 C31     -0.9216  -0.4069  16.1735   C.ar      1 RES1   0.0000
    43 C32     -0.3549   0.1250  17.3289   C.ar      1 RES1   0.0000
    44 C33      1.8135  -2.1353  17.2617   C.ar      1 RES1   0.0000
    45 C34      2.5272  -3.2786  17.5578   C.ar      1 RES1   0.0000
    46 C35      3.7267  -3.2100  18.2486   C.ar      1 RES1   0.0000
    47 C36      4.1947  -1.9763  18.6417   C.ar      1 RES1   0.0000
    48 C37      3.4878  -0.8316  18.3531   C.ar      1 RES1   0.0000
    49 C38      2.2848  -0.8988  17.6488   C.ar      1 RES1   0.0000
    50 C39      1.1811   4.8404  20.7659   C.ar      1 RES1   0.0000
    51 C40      0.3436   5.4073  21.7107   C.ar      1 RES1   0.0000
    52 C41     -0.5533   4.6240  22.4139   C.ar      1 RES1   0.0000
    53 C42     -0.6365   3.2974  22.1604   C.ar      1 RES1   0.0000
    54 C43      0.1949   2.7160  21.2100   C.ar      1 RES1   0.0000
    55 C44      1.1037   3.4807  20.5109   C.ar      1 RES1   0.0000
    56 C45      4.9684   2.8082  19.7087   C.ar      1 RES1   0.0000
    57 C46      6.1275   2.5010  20.4155   C.ar      1 RES1   0.0000
    58 C47      6.0646   1.8013  21.5982   C.ar      1 RES1   0.0000
    59 C48      4.8415   1.4059  22.0944   C.ar      1 RES1   0.0000
    60 C49      3.6920   1.7273  21.3949   C.ar      1 RES1   0.0000
    61 C50      3.7476   2.4125  20.2005   C.ar      1 RES1   0.0000
    62 C51      1.9587   5.9720  14.8990   C.ar      1 RES1   0.0000
    63 C52      2.4951   7.1374  14.3704   C.ar      1 RES1   0.0000
    64 C53      3.5634   7.7038  14.9659   C.ar      1 RES1   0.0000
    65 C54      4.1276   7.1655  16.0738   C.ar      1 RES1   0.0000
    66 C55      3.6414   5.9699  16.6102   C.ar      1 RES1   0.0000
    67 C56      2.5396   5.3782  16.0106   C.ar      1 RES1   0.0000
    68 C57     -0.9591   3.5924  17.1633   C.ar      1 RES1   0.0000
    69 C58     -2.2188   4.0486  17.5474   C.ar      1 RES1   0.0000
    70 C59     -2.4146   5.3420  17.8993   C.ar      1 RES1   0.0000
    71 C60     -1.3314   6.2067  17.8498   C.ar      1 RES1   0.0000
    72 C61     -0.1110   5.7689  17.4455   C.ar      1 RES1   0.0000
    73 C62      0.1058   4.4540  17.0867   C.ar      1 RES1   0.0000
    74 H1       0.0922   3.3069  12.5323   H         1 RES1   0.0000
    75 H2      -0.8466   5.0092  11.1588   H         1 RES1   0.0000
    76 H3       0.5751   6.5853  10.1163   H         1 RES1   0.0000
    77 H4       3.1401   6.3115  10.2612   H         1 RES1   0.0000
    78 H5       3.8943   4.7473  11.6996   H         1 RES1   0.0000
    79 H6       5.0948   1.5261  12.1300   H         1 RES1   0.0000
    80 H7       7.4694   2.2808  12.0218   H         1 RES1   0.0000
    81 H8       8.4637   3.9164  13.1617   H         1 RES1   0.0000
    82 H9       7.1724   4.8783  14.9462   H         1 RES1   0.0000
    83 H10      4.3673   4.8330  14.5742   H         1 RES1   0.0000
    84 H11      0.1191   0.5404  12.3225   H         1 RES1   0.0000
    85 H12     -1.7795  -0.8499  11.6109   H         1 RES1   0.0000
    86 H13     -1.6782  -3.3212  12.2403   H         1 RES1   0.0000
    87 H14     -0.1205  -3.9950  13.7804   H         1 RES1   0.0000
    88 H15      1.9367  -2.6189  14.2627   H         1 RES1   0.0000
    89 H16      4.1192  -0.7214  11.7104   H         1 RES1   0.0000
    90 H17      5.8700  -2.2879  11.6347   H         1 RES1   0.0000
    91 H18      6.5252  -3.5022  13.4537   H         1 RES1   0.0000
    92 H19      5.5742  -3.0760  15.7119   H         1 RES1   0.0000
    93 H20      3.9544  -1.3428  15.8460   H         1 RES1   0.0000
    94 H21     -0.7621   0.6500  19.2700   H         1 RES1   0.0000
    95 H22     -3.1564   0.0500  19.1445   H         1 RES1   0.0000
    96 H23     -3.9512  -0.8523  17.2281   H         1 RES1   0.0000
    97 H24     -2.7270  -0.9809  15.2014   H         1 RES1   0.0000
    98 H25     -0.2737  -0.5119  15.3745   H         1 RES1   0.0000
    99 H26      0.8580  -2.2737  16.7739   H         1 RES1   0.0000
   100 H27      2.2744  -4.2664  17.3017   H         1 RES1   0.0000
   101 H28      4.2657  -4.0950  18.5130   H         1 RES1   0.0000
   102 H29      5.0637  -1.9094  19.1835   H         1 RES1   0.0000
   103 H30      3.8185   0.0405  18.5887   H         1 RES1   0.0000
   104 H31      1.6604   5.5496  19.9838   H         1 RES1   0.0000
   105 H32      0.1744   6.3686  21.6882   H         1 RES1   0.0000
   106 H33     -1.1014   5.2187  23.0293   H         1 RES1   0.0000
   107 H34     -1.1860   2.7736  22.8151   H         1 RES1   0.0000
   108 H35      0.2760   1.6594  21.2015   H         1 RES1   0.0000
   109 H36      5.0408   3.2926  18.8179   H         1 RES1   0.0000
   110 H37      7.0621   2.7498  20.1136   H         1 RES1   0.0000
   111 H38      6.8835   1.8189  22.1965   H         1 RES1   0.0000
   112 H39      4.7918   0.8285  22.9687   H         1 RES1   0.0000
   113 H40      2.7269   1.3452  21.7315   H         1 RES1   0.0000
   114 H41      1.2514   5.3139  14.3644   H         1 RES1   0.0000
   115 H42      1.9266   7.5781  13.3586   H         1 RES1   0.0000
   116 H43      4.0320   8.5804  14.6499   H         1 RES1   0.0000
   117 H44      5.2163   7.3019  16.5425   H         1 RES1   0.0000
   118 H45      3.9579   5.4092  17.4423   H         1 RES1   0.0000
   119 H46      0.6424   6.5067  17.3623   H         1 RES1   0.0000
   120 H47     -1.5529   7.1019  18.1755   H         1 RES1   0.0000
   121 H48     -3.4911   5.7044  17.8684   H         1 RES1   0.0000
   122 H49     -2.9226   3.4117  17.5504   H         1 RES1   0.0000
   123 H50     -0.8656   2.6332  16.9513   H         1 RES1   0.0000
@<TRIPOS>BOND
     1     1     2    1
     2     2     3    3
     3     4     1    1
     4     5     4    3
     5     6     1    1
     6     7     1    1
     7     8     1    1
     8     9    12    2
     9    10     1    1
    10    11     6   un
    11    12     8    1
    12    13     9    2
    13    14    15   ar
    14    15    16   ar
    15    16    17   ar
    16    17    18   ar
    17    18    19   ar
    18    19     6    1
    19    20    21   ar
    20    21    22   ar
    21    22    23   ar
    22    23    24   ar
    23    24    25   ar
    24    25     6    1
    25    26    27   ar
    26    27    28   ar
    27    28    29   ar
    28    29    30   ar
    29    30    31   ar
    30    31     7    1
    31    32    33   ar
    32    33    34   ar
    33    34    35   ar
    34    35    36   ar
    35    36    37   ar
    36    37     7    1
    37    38    39   ar
    38    39    40   ar
    39    40    41   ar
    40    41    42   ar
    41    42    43   ar
    42    43     8    1
    43    44    45   ar
    44    45    46   ar
    45    46    47   ar
    46    47    48   ar
    47    48    49   ar
    48    49     8    1
    49    50    51   ar
    50    51    52   ar
    51    52    53   ar
    52    53    54   ar
    53    54    55   ar
    54    55     9    1
    55    56    57   ar
    56    57    58   ar
    57    58    59   ar
    58    59    60   ar
    59    60    61   ar
    60    61     9    1
    61    62    63   ar
    62    63    64   ar
    63    64    65   ar
    64    65    66   ar
    65    66    67   ar
    66    67    10    1
    67    68    69   ar
    68    69    70   ar
    69    70    71   ar
    70    71    72   ar
    71    72    73   ar
    72    73    10    1
    73    74    14    1
    74    75    15    1
    75    76    16    1
    76    77    17    1
    77    78    18    1
    78    79    20    1
    79    80    21    1
    80    81    22    1
    81    82    23    1
    82    83    24    1
    83    84    26    1
    84    85    27    1
    85    86    28    1
    86    87    29    1
    87    88    30    1
    88    89    32    1
    89    90    33    1
    90    91    34    1
    91    92    35    1
    92    93    36    1
    93    94    38    1
    94    95    39    1
    95    96    40    1
    96    97    41    1
    97    98    42    1
    98    99    44    1
    99   100    45    1
   100   101    46    1
   101   102    47    1
   102   103    48    1
   103   104    50    1
   104   105    51    1
   105   106    52    1
   106   107    53    1
   107   108    54    1
   108   109    56    1
   109   110    57    1
   110   111    58    1
   111   112    59    1
   112   113    60    1
   113   114    62    1
   114   115    63    1
   115   116    64    1
   116   117    65    1
   117   118    66    1
   118   119    72    1
   119   120    71    1
   120   121    70    1
   121   122    69    1
   122   123    68    1
   123     7    11   un
   124    10    13    1
   125    14    19   ar
   126    20    25   ar
   127    26    31   ar
   128    32    37   ar
   129    38    43   ar
   130    44    49   ar
   131    50    55   ar
   132    56    61   ar
   133    62    67   ar
   134    68    73   ar
@<TRIPOS>SUBSTRUCTURE
     1 RES1        1 GROUP             0 ****  ****    0  
@<TRIPOS>CRYSIN
   10.4620   23.8080   21.7450   90.0000   95.9000   90.0000   231     1
