@<TRIPOS>MOLECULE
ZEWVOO
   108   115     4     0     0
SMALL
USER_CHARGES
****
Generated from the CSD

@<TRIPOS>ATOM
     1 Fe1      2.1345   2.1187   4.6493   Fe        1 RES1   1.0000
     2 O1       2.7663   0.9061   3.3915   O.3       1 RES1   0.0000
     3 O2       3.6883   1.9676   5.6624   O.3       1 RES1   0.0000
     4 N1       0.4986   2.4232   3.5966   N.2       1 RES1   0.0000
     5 N2       1.3169   3.3484   5.9745   N.2       1 RES1   0.0000
     6 N3       2.9866   3.6447   3.6100   N.2       1 RES1   0.0000
     7 N4       4.6139   4.8224   2.7643   N.pl3     1 RES1   0.0000
     8 N5       1.2696   0.5475   5.6089   N.2       1 RES1   0.0000
     9 N6       0.7105  -0.9469   7.0951   N.pl3     1 RES1   0.0000
    10 C1       2.4449   0.9019   2.0851   C.ar      1 RES1   0.0000
    11 C2       3.3170   0.1742   1.2425   C.ar      1 RES1   0.0000
    12 C3       3.0896   0.1137  -0.1159   C.ar      1 RES1   0.0000
    13 C4       1.9778   0.7633  -0.6480   C.ar      1 RES1   0.0000
    14 C5       1.1359   1.4356   0.1278   C.ar      1 RES1   0.0000
    15 C6       1.3116   1.5206   1.5412   C.ar      1 RES1   0.0000
    16 C7       0.2958   2.1751   2.3527   C.2       1 RES1   0.0000
    17 C8      -0.9747   2.5510   1.6764   C.3       1 RES1   0.0000
    18 C9      -0.5498   3.0313   4.4586   C.3       1 RES1   0.0000
    19 C10      0.0897   3.9540   5.4677   C.3       1 RES1   0.0000
    20 C11      1.7706   3.6980   7.1427   C.2       1 RES1   0.0000
    21 C12      1.0217   4.7285   7.9660   C.3       1 RES1   0.0000
    22 C13      3.0201   3.1512   7.6673   C.ar      1 RES1   0.0000
    23 C14      3.4210   3.4274   9.0272   C.ar      1 RES1   0.0000
    24 C15      4.5768   2.9680   9.5800   C.ar      1 RES1   0.0000
    25 C16      5.4060   2.1991   8.8042   C.ar      1 RES1   0.0000
    26 C17      5.0901   1.8740   7.5038   C.ar      1 RES1   0.0000
    27 C18      3.8974   2.3209   6.9331   C.ar      1 RES1   0.0000
    28 C19      4.2760   3.8089   3.5520   C.2       1 RES1   0.0000
    29 C20      3.5200   5.3385   2.2605   C.2       1 RES1   0.0000
    30 C21      2.4832   4.6373   2.8030   C.2       1 RES1   0.0000
    31 C22      1.3043   0.2097   6.8766   C.2       1 RES1   0.0000
    32 C23      0.2165  -1.4017   5.9255   C.2       1 RES1   0.0000
    33 C24      0.5501  -0.4588   5.0040   C.2       1 RES1   0.0000
    34 H1       5.4786   5.1222   2.6038   H         1 RES1   0.0000
    35 H2       0.6266  -1.3848   7.9110   H         1 RES1   0.0000
    36 H3       4.0459  -0.2586   1.6244   H         1 RES1   0.0000
    37 H4       3.6667  -0.3820  -0.6510   H         1 RES1   0.0000
    38 H5       1.8680   0.7527  -1.5709   H         1 RES1   0.0000
    39 H6       0.3993   1.8351  -0.2749   H         1 RES1   0.0000
    40 H7      -1.1507   1.9059   0.9883   H         1 RES1   0.0000
    41 H8      -0.8858   3.4221   1.2841   H         1 RES1   0.0000
    42 H9      -1.7013   2.5550   2.3036   H         1 RES1   0.0000
    43 H10     -1.0463   2.3534   4.9446   H         1 RES1   0.0000
    44 H11     -1.1651   3.5635   3.9310   H         1 RES1   0.0000
    45 H12      0.3064   4.7978   5.0397   H         1 RES1   0.0000
    46 H13     -0.5272   4.1121   6.1989   H         1 RES1   0.0000
    47 H14      0.6169   5.3700   7.3775   H         1 RES1   0.0000
    48 H15      1.6245   5.1789   8.5620   H         1 RES1   0.0000
    49 H16      0.3395   4.2856   8.4758   H         1 RES1   0.0000
    50 H17      2.8513   3.9454   9.5473   H         1 RES1   0.0000
    51 H18      4.7907   3.1678  10.4628   H         1 RES1   0.0000
    52 H19      6.2086   1.8927   9.1624   H         1 RES1   0.0000
    53 H20      5.6725   1.3597   6.9926   H         1 RES1   0.0000
    54 H21      4.8869   3.2837   4.0157   H         1 RES1   0.0000
    55 H22      3.4720   6.0321   1.6422   H         1 RES1   0.0000
    56 H23      1.5791   4.8035   2.6633   H         1 RES1   0.0000
    57 H24      1.7136   0.7252   7.5335   H         1 RES1   0.0000
    58 H25     -0.2580  -2.1896   5.7798   H         1 RES1   0.0000
    59 H26      0.3292  -0.4773   4.1004   H         1 RES1   0.0000
    60 O3       5.0007  -0.5130   4.3679   O.3       2 RES2   0.0000
    61 C25      4.3263  -1.5778   4.9758   C.2       2 RES2   0.0000
    62 O4       7.4978  -0.2711   5.1437   O.3       3 RES3   0.0000
    63 C26      8.4944  -0.6610   4.1807   C.3       3 RES3   0.0000
    64 C27      8.1697   5.5287   3.1314   C.ar      4 RES4   0.0000
    65 C28      7.9937   5.0389   1.8251   C.ar      4 RES4   0.0000
    66 C29      7.6792   3.7504   1.5085   C.ar      4 RES4   0.0000
    67 C30      7.4637   2.8307   2.5102   C.ar      4 RES4   0.0000
    68 C31      7.6194   3.2318   3.7972   C.ar      4 RES4   0.0000
    69 C32      7.9473   4.5622   4.1108   C.ar      4 RES4   0.0000
    70 C33      8.6637   7.4374   5.0189   C.ar      4 RES4   0.0000
    71 C34      9.6462   6.7689   5.7560   C.ar      4 RES4   0.0000
    72 C35      9.9535   7.0502   7.0639   C.ar      4 RES4   0.0000
    73 C36      9.3017   8.0468   7.7089   C.ar      4 RES4   0.0000
    74 C37      8.3190   8.7463   7.0505   C.ar      4 RES4   0.0000
    75 C38      7.9947   8.4482   5.7293   C.ar      4 RES4   0.0000
    76 C39      7.1994   7.9355   2.7584   C.ar      4 RES4   0.0000
    77 C40      5.9432   7.9085   3.3662   C.ar      4 RES4   0.0000
    78 C41      4.8531   8.5439   2.8535   C.ar      4 RES4   0.0000
    79 C42      4.9255   9.2045   1.6764   C.ar      4 RES4   0.0000
    80 C43      6.1351   9.1913   0.9839   C.ar      4 RES4   0.0000
    81 C44      7.2513   8.5772   1.5308   C.ar      4 RES4   0.0000
    82 C45      9.8924   7.5919   2.7227   C.ar      4 RES4   0.0000
    83 C46     10.3245   8.8950   2.8639   C.ar      4 RES4   0.0000
    84 C47     11.5644   9.3360   2.3839   C.ar      4 RES4   0.0000
    85 C48     12.3771   8.4666   1.7448   C.ar      4 RES4   0.0000
    86 C49     12.0094   7.1555   1.5813   C.ar      4 RES4   0.0000
    87 C50     10.7609   6.7224   2.0837   C.ar      4 RES4   0.0000
    88 B1       8.4661   7.1163   3.4197   B         4 RES4  -1.0000
    89 H27      8.1049   5.6437   1.1280   H         4 RES4   0.0000
    90 H28      7.5863   3.4925   0.6197   H         4 RES4   0.0000
    91 H29      7.2287   1.9503   2.3200   H         4 RES4   0.0000
    92 H30      7.5132   2.6290   4.4972   H         4 RES4   0.0000
    93 H31      8.0178   4.8223   5.0011   H         4 RES4   0.0000
    94 H32     10.1183   6.0951   5.3221   H         4 RES4   0.0000
    95 H33     10.5891   6.5441   7.5172   H         4 RES4   0.0000
    96 H34      9.5344   8.2731   8.5813   H         4 RES4   0.0000
    97 H35      7.8523   9.4224   7.4860   H         4 RES4   0.0000
    98 H36      7.3232   8.9107   5.2819   H         4 RES4   0.0000
    99 H37      5.8634   7.4647   4.1792   H         4 RES4   0.0000
   100 H38      4.0382   8.5140   3.3023   H         4 RES4   0.0000
   101 H39      4.1890   9.6514   1.3272   H         4 RES4   0.0000
   102 H40      6.2087   9.6188   0.1620   H         4 RES4   0.0000
   103 H41      8.0589   8.5727   1.0686   H         4 RES4   0.0000
   104 H42      9.7715   9.4936   3.3142   H         4 RES4   0.0000
   105 H43     11.8221  10.2236   2.4834   H         4 RES4   0.0000
   106 H44     13.1924   8.7777   1.4223   H         4 RES4   0.0000
   107 H45     12.5886   6.5600   1.1607   H         4 RES4   0.0000
   108 H46     10.4935   5.8382   1.9781   H         4 RES4   0.0000
@<TRIPOS>BOND
     1     1     2    1
     2     2    10    1
     3     3     1    1
     4     4     1    1
     5     5     1    1
     6     6     1    1
     7     7    28    1
     8     8     1    1
     9     9    31    1
    10    10    11   ar
    11    11    12   ar
    12    12    13   ar
    13    13    14   ar
    14    14    15   ar
    15    15    10   ar
    16    16     4    2
    17    17    16    1
    18    18     4    1
    19    19     5    1
    20    20     5    2
    21    21    20    1
    22    22    20    1
    23    23    22   ar
    24    24    23   ar
    25    25    24   ar
    26    26    25   ar
    27    27     3    1
    28    28     6    2
    29    29     7    1
    30    30     6    1
    31    31     8    2
    32    32     9    1
    33    33     8    1
    34    34     7    1
    35    35     9    1
    36    36    11    1
    37    37    12    1
    38    38    13    1
    39    39    14    1
    40    40    17    1
    41    41    17    1
    42    42    17    1
    43    43    18    1
    44    44    18    1
    45    45    19    1
    46    46    19    1
    47    47    21    1
    48    48    21    1
    49    49    21    1
    50    50    23    1
    51    51    24    1
    52    52    25    1
    53    53    26    1
    54    54    28    1
    55    55    29    1
    56    56    30    1
    57    57    31    1
    58    58    32    1
    59    59    33    1
    60    15    16    1
    61    18    19    1
    62    22    27   ar
    63    26    27   ar
    64    29    30    2
    65    32    33    2
    66    60    61    1
    67    62    63    1
    68    64    65   ar
    69    65    66   ar
    70    66    67   ar
    71    67    68   ar
    72    68    69   ar
    73    69    64   ar
    74    70    71   ar
    75    71    72   ar
    76    72    73   ar
    77    73    74   ar
    78    74    75   ar
    79    75    70   ar
    80    76    77   ar
    81    77    78   ar
    82    78    79   ar
    83    79    80   ar
    84    80    81   ar
    85    81    76   ar
    86    82    83   ar
    87    83    84   ar
    88    84    85   ar
    89    85    86   ar
    90    86    87   ar
    91    87    82   ar
    92    88    64    1
    93    89    65    1
    94    90    66    1
    95    91    67    1
    96    92    68    1
    97    93    69    1
    98    94    71    1
    99    95    72    1
   100    96    73    1
   101    97    74    1
   102    98    75    1
   103    99    77    1
   104   100    78    1
   105   101    79    1
   106   102    80    1
   107   103    81    1
   108   104    83    1
   109   105    84    1
   110   106    85    1
   111   107    86    1
   112   108    87    1
   113    70    88    1
   114    76    88    1
   115    82    88    1
@<TRIPOS>SUBSTRUCTURE
     1 RES1        1 GROUP             0 ****  ****    0  
     2 RES2       60 GROUP             0 ****  ****    0  
     3 RES3       62 GROUP             0 ****  ****    0  
     4 RES4       64 GROUP             0 ****  ****    0  
@<TRIPOS>CRYSIN
   12.1200   12.6580   15.5440   96.1030  104.8760   97.5210     2     1
