@<TRIPOS>MOLECULE
ZEXZUZ
    96   100     4     0     0
SMALL
USER_CHARGES
****
Generated from the CSD

@<TRIPOS>ATOM
     1 Fe1      4.1390   3.3388   1.5572   Fe        1 RES1   2.0000
     2 P1       5.0929   2.6295   3.4734   P.3       1 RES1   0.0000
     3 P2       2.3447   1.9966   1.3215   P.3       1 RES1   0.0000
     4 O1       5.7197   1.4685  -0.0184   O.2       1 RES1   0.0000
     5 N1       5.7135   4.6710   1.5067   N.pl3     1 RES1   0.0000
     6 N2       3.3875   4.3250  -0.0872   N.pl3     1 RES1   0.0000
     7 N3       3.1244   4.6470   2.5982   N.1       1 RES1   0.0000
     8 C1       6.7335   3.3854   3.3263   C.ar      1 RES1   0.0000
     9 C2       7.8284   3.0664   4.1432   C.ar      1 RES1   0.0000
    10 H1       7.7436   2.4005   4.8160   H         1 RES1   0.0000
    11 C3       9.0378   3.7272   3.9644   C.ar      1 RES1   0.0000
    12 H2       9.7814   3.5176   4.5170   H         1 RES1   0.0000
    13 C4       9.1571   4.6906   2.9793   C.ar      1 RES1   0.0000
    14 H3       9.9875   5.1380   2.8632   H         1 RES1   0.0000
    15 C5       8.0842   5.0184   2.1530   C.ar      1 RES1   0.0000
    16 H4       8.1788   5.6735   1.4710   H         1 RES1   0.0000
    17 C6       6.8635   4.3624   2.3493   C.ar      1 RES1   0.0000
    18 C7       4.3881   3.2806   5.0189   C.ar      1 RES1   0.0000
    19 C8       5.1312   4.0573   5.9039   C.ar      1 RES1   0.0000
    20 H5       6.0485   4.2285   5.7250   H         1 RES1   0.0000
    21 C9       4.5408   4.5854   7.0491   C.ar      1 RES1   0.0000
    22 H6       5.0528   5.1264   7.6391   H         1 RES1   0.0000
    23 C10      3.2084   4.3255   7.3334   C.ar      1 RES1   0.0000
    24 H7       2.8098   4.6833   8.1170   H         1 RES1   0.0000
    25 C11      2.4583   3.5361   6.4645   C.ar      1 RES1   0.0000
    26 H8       1.5477   3.3468   6.6580   H         1 RES1   0.0000
    27 C12      3.0448   3.0237   5.3112   C.ar      1 RES1   0.0000
    28 H9       2.5284   2.4928   4.7159   H         1 RES1   0.0000
    29 C13      5.4143   0.8718   3.8095   C.ar      1 RES1   0.0000
    30 C14      4.7225   0.1773   4.8040   C.ar      1 RES1   0.0000
    31 H10      4.1384   0.6463   5.3886   H         1 RES1   0.0000
    32 C15      4.8843  -1.1979   4.9415   C.ar      1 RES1   0.0000
    33 H11      4.4113  -1.6688   5.6169   H         1 RES1   0.0000
    34 C16      5.7428  -1.8784   4.0872   C.ar      1 RES1   0.0000
    35 H12      5.8425  -2.8206   4.1673   H         1 RES1   0.0000
    36 C17      6.4542  -1.1910   3.1181   C.ar      1 RES1   0.0000
    37 H13      7.0471  -1.6619   2.5441   H         1 RES1   0.0000
    38 C18      6.3045   0.1819   2.9806   C.ar      1 RES1   0.0000
    39 H14      6.8074   0.6532   2.3252   H         1 RES1   0.0000
    40 C19      1.4035   2.8963   0.0614   C.ar      1 RES1   0.0000
    41 C20      0.1283   2.5184  -0.3751   C.ar      1 RES1   0.0000
    42 H15     -0.3249   1.7981   0.0467   H         1 RES1   0.0000
    43 C21     -0.4670   3.1933  -1.4122   C.ar      1 RES1   0.0000
    44 H16     -1.3293   2.9337  -1.7152   H         1 RES1   0.0000
    45 C22      0.1915   4.2565  -2.0209   C.ar      1 RES1   0.0000
    46 H17     -0.2224   4.7156  -2.7417   H         1 RES1   0.0000
    47 C23      1.4414   4.6514  -1.5858   C.ar      1 RES1   0.0000
    48 H18      1.8795   5.3896  -1.9915   H         1 RES1   0.0000
    49 C24      2.0512   3.9583  -0.5473   C.ar      1 RES1   0.0000
    50 C25      1.1351   1.7228   2.6536   C.ar      1 RES1   0.0000
    51 C26      0.3371   2.8010   3.0474   C.ar      1 RES1   0.0000
    52 H19      0.3778   3.6169   2.5628   H         1 RES1   0.0000
    53 C27     -0.5143   2.6865   4.1406   C.ar      1 RES1   0.0000
    54 H20     -1.0617   3.4207   4.3942   H         1 RES1   0.0000
    55 C28     -0.5677   1.5010   4.8627   C.ar      1 RES1   0.0000
    56 H21     -1.1307   1.4334   5.6249   H         1 RES1   0.0000
    57 C29      0.2004   0.4199   4.4703   C.ar      1 RES1   0.0000
    58 H22      0.1481  -0.3970   4.9521   H         1 RES1   0.0000
    59 C30      1.0532   0.5226   3.3691   C.ar      1 RES1   0.0000
    60 H23      1.5795  -0.2239   3.1061   H         1 RES1   0.0000
    61 C31      2.7114   0.3808   0.5539   C.ar      1 RES1   0.0000
    62 C32      3.4497  -0.5710   1.2601   C.ar      1 RES1   0.0000
    63 H24      3.6495  -0.4293   2.1784   H         1 RES1   0.0000
    64 C33      3.8946  -1.7267   0.6274   C.ar      1 RES1   0.0000
    65 H25      4.3921  -2.3728   1.1132   H         1 RES1   0.0000
    66 C34      3.6097  -1.9363  -0.7141   C.ar      1 RES1   0.0000
    67 H26      3.9278  -2.7190  -1.1479   H         1 RES1   0.0000
    68 C35      2.8692  -1.0126  -1.4229   C.ar      1 RES1   0.0000
    69 H27      2.6633  -1.1725  -2.3372   H         1 RES1   0.0000
    70 C36      2.4217   0.1526  -0.8049   C.ar      1 RES1   0.0000
    71 H28      1.9230   0.7917  -1.2988   H         1 RES1   0.0000
    72 C37      5.0920   2.1900   0.6087   C.1       1 RES1   0.0000
    73 C38      2.6318   5.4429   3.2396   C.1       1 RES1   0.0000
    74 C39      2.0169   6.4100   4.1232   C.3       1 RES1   0.0000
    75 H29      1.1283   6.0935   4.3875   H         1 RES1   0.0000
    76 H30      1.9325   7.2684   3.6600   H         1 RES1   0.0000
    77 H31      2.5740   6.5229   4.9214   H         1 RES1   0.0000
    78 H32      5.9982   4.7248   0.7608   H         1 RES1   0.0000
    79 H33      5.3955   5.4265   1.6952   H         1 RES1   0.0000
    80 H34      3.8723   4.2447  -0.7074   H         1 RES1   0.0000
    81 H35      3.3896   5.2257   0.1602   H         1 RES1   0.0000
    82 Cl1     -0.1528   2.4340   8.9750   Cl        2 RES2   0.0000
    83 Cl2      1.4843   0.2073   8.0764   Cl        2 RES2   0.0000
    84 C40      1.3437   1.5649   9.1861   C.3       2 RES2   0.0000
    85 H36      1.3973   1.2302  10.1165   H         2 RES2   0.0000
    86 H37      2.1025   2.1835   9.0420   H         2 RES2   0.0000
    87 B1       3.8162   4.8504  11.3232   B         3 RES3  -1.0000
    88 F1       4.7280   4.1568  12.1094   F         3 RES3   0.0000
    89 F2       3.2586   5.8740  12.0887   F         3 RES3   0.0000
    90 F3       2.7754   3.9760  10.9605   F         3 RES3   0.0000
    91 F4       4.4123   5.3715  10.1943   F         3 RES3   0.0000
    92 B2       1.3724   8.1296  14.5160   B         4 RES4  -1.0000
    93 F5       0.9131   8.6789  15.7174   F         4 RES4   0.0000
    94 F6       0.4183   7.2372  14.0101   F         4 RES4   0.0000
    95 F7       1.6127   9.1094  13.6270   F         4 RES4   0.0000
    96 F8       2.5061   7.4013  14.8298   F         4 RES4   0.0000
@<TRIPOS>BOND
     1     1     2    1
     2     2     8    1
     3     3     1    1
     4     4    72    3
     5     5     1    1
     6     6     1    1
     7     7     1    1
     8     8     9   ar
     9     9    10    1
    10    11     9   ar
    11    12    11    1
    12    13    11   ar
    13    14    13    1
    14    15    13   ar
    15    16    15    1
    16    17     5    1
    17    18     2    1
    18    19    18   ar
    19    20    19    1
    20    21    19   ar
    21    22    21    1
    22    23    21   ar
    23    24    23    1
    24    25    23   ar
    25    26    25    1
    26    27    18   ar
    27    28    27    1
    28    29     2    1
    29    30    29   ar
    30    31    30    1
    31    32    30   ar
    32    33    32    1
    33    34    32   ar
    34    35    34    1
    35    36    34   ar
    36    37    36    1
    37    38    29   ar
    38    39    38    1
    39    40     3    1
    40    41    40   ar
    41    42    41    1
    42    43    41   ar
    43    44    43    1
    44    45    43   ar
    45    46    45    1
    46    47    45   ar
    47    48    47    1
    48    49     6    1
    49    50     3    1
    50    51    50   ar
    51    52    51    1
    52    53    51   ar
    53    54    53    1
    54    55    53   ar
    55    56    55    1
    56    57    55   ar
    57    58    57    1
    58    59    50   ar
    59    60    59    1
    60    61     3    1
    61    62    61   ar
    62    63    62    1
    63    64    62   ar
    64    65    64    1
    65    66    64   ar
    66    67    66    1
    67    68    66   ar
    68    69    68    1
    69    70    61   ar
    70    71    70    1
    71    72     1    1
    72    73     7    3
    73    74    73    1
    74    75    74    1
    75    76    74    1
    76    77    74    1
    77    78     5    1
    78    79     5    1
    79    80     6    1
    80    81     6    1
    81     8    17   ar
    82    15    17   ar
    83    25    27   ar
    84    36    38   ar
    85    40    49   ar
    86    47    49   ar
    87    57    59   ar
    88    68    70   ar
    89    82    84    1
    90    83    84    1
    91    84    85    1
    92    86    84    1
    93    87    88    1
    94    89    87    1
    95    90    87    1
    96    91    87    1
    97    92    93    1
    98    94    92    1
    99    95    92    1
   100    96    92    1
@<TRIPOS>SUBSTRUCTURE
     1 RES1        1 GROUP             0 ****  ****    0  
     2 RES2       82 GROUP             0 ****  ****    0  
     3 RES3       87 GROUP             0 ****  ****    0  
     4 RES4       92 GROUP             0 ****  ****    0  
@<TRIPOS>CRYSIN
   13.4610   23.0816   13.5722   90.0000  100.4270   90.0000   231     1
