@<TRIPOS>MOLECULE
ZEYBEM
   107   110     5     0     0
SMALL
USER_CHARGES
****
Generated from the CSD

@<TRIPOS>ATOM
     1 Fe1      5.5547   5.0112  12.3864   Fe        1 RES1   2.0000
     2 P1       4.2031   6.1723  11.0337   P.3       1 RES1   0.0000
     3 P2       4.1775   3.9016  13.7392   P.3       1 RES1   0.0000
     4 N1       7.0369   5.8677  11.2402   N.pl3     1 RES1   0.0000
     5 H1       7.7288   5.2887  11.1795   H         1 RES1   0.0000
     6 H2       7.3461   6.5557  11.6493   H         1 RES1   0.0000
     7 N2       7.0310   4.1180  13.5079   N.pl3     1 RES1   0.0000
     8 H3       7.6510   4.7117  13.6508   H         1 RES1   0.0000
     9 H4       7.3818   3.4630  13.0708   H         1 RES1   0.0000
    10 N3       5.5917   3.5133  11.1858   N.1       1 RES1   0.0000
    11 N4       5.6515   6.4977  13.5900   N.1       1 RES1   0.0000
    12 C1       5.3134   6.4537   9.6184   C.ar      1 RES1   0.0000
    13 C2       4.9176   6.8153   8.3290   C.ar      1 RES1   0.0000
    14 H5       4.0007   6.9611   8.1385   H         1 RES1   0.0000
    15 C3       5.8673   6.9478   7.3167   C.ar      1 RES1   0.0000
    16 H6       5.5763   7.1636   6.4278   H         1 RES1   0.0000
    17 C4       7.2125   6.7340   7.5974   C.ar      1 RES1   0.0000
    18 H7       7.8664   6.8284   6.8874   H         1 RES1   0.0000
    19 C5       7.6182   6.3842   8.8840   C.ar      1 RES1   0.0000
    20 H8       8.5504   6.2424   9.0954   H         1 RES1   0.0000
    21 C6       6.6653   6.2434   9.8879   C.ar      1 RES1   0.0000
    22 C7       3.6905   7.8283  11.6137   C.ar      1 RES1   0.0000
    23 C8       4.0576   9.0042  10.9576   C.ar      1 RES1   0.0000
    24 H9       4.6138   8.9968  10.1727   H         1 RES1   0.0000
    25 C9       3.6131  10.2385  11.4368   C.ar      1 RES1   0.0000
    26 H10      3.8842  11.0580  10.9850   H         1 RES1   0.0000
    27 C10      2.8107  10.3083  12.5649   C.ar      1 RES1   0.0000
    28 H11      2.4639  11.1753  12.8591   H         1 RES1   0.0000
    29 C11      2.4617   9.1404  13.2395   C.ar      1 RES1   0.0000
    30 H12      1.9316   9.1737  14.0587   H         1 RES1   0.0000
    31 C12      2.9091   7.9078  12.7765   C.ar      1 RES1   0.0000
    32 H13      2.6610   7.1121  13.2446   H         1 RES1   0.0000
    33 C13      2.6822   5.4798  10.3025   C.ar      1 RES1   0.0000
    34 C14      1.4187   5.8338  10.7814   C.ar      1 RES1   0.0000
    35 H14      1.2890   6.5121  11.4325   H         1 RES1   0.0000
    36 C15      0.2785   5.2060  10.2949   C.ar      1 RES1   0.0000
    37 H15     -0.5742   5.4620  10.6305   H         1 RES1   0.0000
    38 C16      0.3867   4.2194   9.3215   C.ar      1 RES1   0.0000
    39 H16     -0.3946   3.7824   8.9938   H         1 RES1   0.0000
    40 C17      1.6353   3.8732   8.8267   C.ar      1 RES1   0.0000
    41 H17      1.7263   3.2089   8.1970   H         1 RES1   0.0000
    42 C18      2.7830   4.4934   9.3139   C.ar      1 RES1   0.0000
    43 H18      3.6454   4.1966   8.9818   H         1 RES1   0.0000
    44 C19      5.2974   3.4539  15.0931   C.ar      1 RES1   0.0000
    45 C20      4.8983   2.9353  16.3364   C.ar      1 RES1   0.0000
    46 H19      3.9543   2.8435  16.5145   H         1 RES1   0.0000
    47 C21      5.8565   2.5432  17.2576   C.ar      1 RES1   0.0000
    48 H20      5.5846   2.2150  18.0995   H         1 RES1   0.0000
    49 C22      7.2050   2.6500  16.9456   C.ar      1 RES1   0.0000
    50 H21      7.8665   2.3931  17.5695   H         1 RES1   0.0000
    51 C23      7.6124   3.1689  15.7234   C.ar      1 RES1   0.0000
    52 H22      8.5489   3.2521  15.5232   H         1 RES1   0.0000
    53 C24      6.6505   3.5745  14.8047   C.ar      1 RES1   0.0000
    54 C25      2.7701   4.7271  14.5455   C.ar      1 RES1   0.0000
    55 C26      1.4736   4.5948  14.0458   C.ar      1 RES1   0.0000
    56 H23      1.3080   4.0114  13.3582   H         1 RES1   0.0000
    57 C27      0.4419   5.3895  14.5376   C.ar      1 RES1   0.0000
    58 H24     -0.4130   5.2987  14.1361   H         1 RES1   0.0000
    59 C28      0.6959   6.3214  15.5275   C.ar      1 RES1   0.0000
    60 H25      0.0016   6.8970  15.8175   H         1 RES1   0.0000
    61 C29      1.9701   6.4416  16.0547   C.ar      1 RES1   0.0000
    62 H26      2.1286   7.0675  16.7159   H         1 RES1   0.0000
    63 C30      3.0076   5.6477  15.5740   C.ar      1 RES1   0.0000
    64 H27      3.8964   5.7248  15.9483   H         1 RES1   0.0000
    65 C31      3.5455   2.2950  13.1302   C.ar      1 RES1   0.0000
    66 C32      3.9975   1.0913  13.6644   C.ar      1 RES1   0.0000
    67 H28      4.6192   1.1100  14.3925   H         1 RES1   0.0000
    68 C33      3.5842  -0.1281  13.1249   C.ar      1 RES1   0.0000
    69 H29      3.9335  -0.9052  13.4873   H         1 RES1   0.0000
    70 C34      2.7136  -0.1554  12.0511   C.ar      1 RES1   0.0000
    71 H30      2.4095  -0.9831  11.6768   H         1 RES1   0.0000
    72 C35      2.2547   1.0411  11.5145   C.ar      1 RES1   0.0000
    73 H31      1.6770   1.0526  10.7940   H         1 RES1   0.0000
    74 C36      2.6799   2.2565  12.0289   C.ar      1 RES1   0.0000
    75 H32      2.3988   3.0709  11.6200   H         1 RES1   0.0000
    76 C37      5.6199   2.5287  10.6102   C.1       1 RES1   0.0000
    77 C38      5.6173   1.2400   9.9311   C.3       1 RES1   0.0000
    78 H33      5.1743   0.6104  10.5134   H         1 RES1   0.0000
    79 H34      6.5205   0.9245   9.7889   H         1 RES1   0.0000
    80 H35      5.2054   1.3039   9.1384   H         1 RES1   0.0000
    81 C39      5.7224   7.4623  14.1941   C.1       1 RES1   0.0000
    82 C40      5.7821   8.7261  14.9150   C.3       1 RES1   0.0000
    83 H36      6.6018   8.9752  15.0104   H         1 RES1   0.0000
    84 H37      5.2857   9.4123  14.4046   H         1 RES1   0.0000
    85 H38      5.3135   8.6641  15.7469   H         1 RES1   0.0000
    86 B1       9.2010   7.7601  13.3488   B         2 RES2  -1.0000
    87 F1      10.4473   7.9180  12.8178   F         2 RES2   0.0000
    88 F2       9.0964   8.4121  14.5645   F         2 RES2   0.0000
    89 F3       8.9225   6.4011  13.5625   F         2 RES2   0.0000
    90 F4       8.2285   8.2688  12.4683   F         2 RES2   0.0000
    91 B2       9.1652   2.3559  11.2425   B         3 RES3  -1.0000
    92 F5       8.7938   1.9124   9.9861   F         3 RES3   0.0000
    93 F6       8.2996   1.8165  12.1942   F         3 RES3   0.0000
    94 F7       9.0251   3.7423  11.2789   F         3 RES3   0.0000
    95 F8      10.4673   1.9989  11.5023   F         3 RES3   0.0000
    96 C41     10.6475   0.7198  15.5246   C.1       4 RES4   0.0000
    97 N5       9.8324   0.3987  16.2400   N.1       4 RES4   0.0000
    98 H39     11.9599   2.0426  14.8692   H         4 RES4   0.0000
    99 C42     11.6894   1.1489  14.6231   C.3       4 RES4   0.0000
   100 H40     12.4332   0.6370  14.7660   H         4 RES4   0.0000
   101 H41     11.3745   1.2293  13.7678   H         4 RES4   0.0000
   102 C43     11.3270   9.7693  16.8203   C.1       5 RES5   0.0000
   103 N6      11.5653   9.0395  17.6605   N.1       5 RES5   0.0000
   104 C44     11.0218  10.6973  15.7383   C.3       5 RES5   0.0000
   105 H42     10.3030  11.1392  15.9535   H         5 RES5   0.0000
   106 H43     11.7243  11.3327  15.5748   H         5 RES5   0.0000
   107 H44     10.9228  10.1752  14.8520   H         5 RES5   0.0000
@<TRIPOS>BOND
     1     1     2    1
     2     2    12    1
     3     3     1    1
     4     4     1    1
     5     5     4    1
     6     6     4    1
     7     7     1    1
     8     8     7    1
     9     9     7    1
    10    10     1    1
    11    11     1    1
    12    12    13   ar
    13    13    14    1
    14    15    13   ar
    15    16    15    1
    16    17    15   ar
    17    18    17    1
    18    19    17   ar
    19    20    19    1
    20    21     4    1
    21    22     2    1
    22    23    22   ar
    23    24    23    1
    24    25    23   ar
    25    26    25    1
    26    27    25   ar
    27    28    27    1
    28    29    27   ar
    29    30    29    1
    30    31    22   ar
    31    32    31    1
    32    33     2    1
    33    34    33   ar
    34    35    34    1
    35    36    34   ar
    36    37    36    1
    37    38    36   ar
    38    39    38    1
    39    40    38   ar
    40    41    40    1
    41    42    33   ar
    42    43    42    1
    43    44     3    1
    44    45    44   ar
    45    46    45    1
    46    47    45   ar
    47    48    47    1
    48    49    47   ar
    49    50    49    1
    50    51    49   ar
    51    52    51    1
    52    53     7    1
    53    54     3    1
    54    55    54   ar
    55    56    55    1
    56    57    55   ar
    57    58    57    1
    58    59    57   ar
    59    60    59    1
    60    61    59   ar
    61    62    61    1
    62    63    54   ar
    63    64    63    1
    64    65     3    1
    65    66    65   ar
    66    67    66    1
    67    68    66   ar
    68    69    68    1
    69    70    68   ar
    70    71    70    1
    71    72    70   ar
    72    73    72    1
    73    74    65   ar
    74    75    74    1
    75    76    10    3
    76    77    76    1
    77    78    77    1
    78    79    77    1
    79    80    77    1
    80    81    11    3
    81    82    81    1
    82    83    82    1
    83    84    82    1
    84    85    82    1
    85    12    21   ar
    86    19    21   ar
    87    29    31   ar
    88    40    42   ar
    89    44    53   ar
    90    51    53   ar
    91    61    63   ar
    92    72    74   ar
    93    86    87    1
    94    88    86    1
    95    89    86    1
    96    90    86    1
    97    91    92    1
    98    93    91    1
    99    94    91    1
   100    95    91    1
   101    96    97    3
   102    98    99    1
   103    99    96    1
   104   100    99    1
   105   101    99    1
   106   102   103    3
   107   104   102    1
   108   105   104    1
   109   106   104    1
   110   107   104    1
@<TRIPOS>SUBSTRUCTURE
     1 RES1        1 GROUP             0 ****  ****    0  
     2 RES2       86 GROUP             0 ****  ****    0  
     3 RES3       91 GROUP             0 ****  ****    0  
     4 RES4       96 GROUP             0 ****  ****    0  
     5 RES5      102 GROUP             0 ****  ****    0  
@<TRIPOS>CRYSIN
   11.3798   12.4188   17.8206   74.9660   85.1780   68.9640     2     1
