@<TRIPOS>MOLECULE
ZEYBAI
    83    86     3     0     0
SMALL
USER_CHARGES
****
Generated from the CSD

@<TRIPOS>ATOM
     1 Fe1      1.8917   3.4792   4.2523   Fe        1 RES1   2.0000
     2 P1       0.1117   3.0989   2.8652   P.3       1 RES1   0.0000
     3 P2       3.6767   2.3649   3.3603   P.3       1 RES1   0.0000
     4 O1       2.4681   5.8988   2.7462   O.2       1 RES1   0.0000
     5 N1       0.4983   4.4633   5.3781   N.3       1 RES1   0.0000
     6 N2       3.2222   3.9453   5.7523   N.3       1 RES1   0.0000
     7 N3       1.5210   1.8914   5.3161   N.1       1 RES1   0.0000
     8 C1      -0.5721   5.1305   4.5937   C.3       1 RES1   0.0000
     9 H1      -0.1881   5.8691   4.0573   H         1 RES1   0.0000
    10 H2      -1.2531   5.5088   5.2041   H         1 RES1   0.0000
    11 C2      -1.2090   4.1052   3.6802   C.3       1 RES1   0.0000
    12 H3      -1.7545   4.5628   2.9917   H         1 RES1   0.0000
    13 H4      -1.8046   3.5135   4.2041   H         1 RES1   0.0000
    14 C3      -0.6639   1.4396   2.7730   C.ar      1 RES1   0.0000
    15 C4      -0.7555   0.7195   1.5793   C.ar      1 RES1   0.0000
    16 H5      -0.4306   1.0995   0.7721   H         1 RES1   0.0000
    17 C5      -1.3213  -0.5532   1.5678   C.ar      1 RES1   0.0000
    18 H6      -1.3821  -1.0363   0.7522   H         1 RES1   0.0000
    19 C6      -1.7955  -1.1182   2.7430   C.ar      1 RES1   0.0000
    20 H7      -2.1635  -1.9944   2.7367   H         1 RES1   0.0000
    21 C7      -1.7303  -0.3989   3.9264   C.ar      1 RES1   0.0000
    22 H8      -2.0687  -0.7785   4.7297   H         1 RES1   0.0000
    23 C8      -1.1735   0.8725   3.9438   C.ar      1 RES1   0.0000
    24 H9      -1.1387   1.3608   4.7582   H         1 RES1   0.0000
    25 C9       0.1519   3.6500   1.1257   C.ar      1 RES1   0.0000
    26 C10      1.3580   3.8591   0.4640   C.ar      1 RES1   0.0000
    27 H10      2.1764   3.7513   0.9346   H         1 RES1   0.0000
    28 C11      1.3803   4.2243  -0.8777   C.ar      1 RES1   0.0000
    29 H11      2.2093   4.3716  -1.3163   H         1 RES1   0.0000
    30 C12      0.1887   4.3736  -1.5741   C.ar      1 RES1   0.0000
    31 H12      0.1987   4.6120  -2.4945   H         1 RES1   0.0000
    32 C13     -1.0191   4.1726  -0.9176   C.ar      1 RES1   0.0000
    33 H13     -1.8355   4.2827  -1.3904   H         1 RES1   0.0000
    34 C14     -1.0456   3.8161   0.4188   C.ar      1 RES1   0.0000
    35 H14     -1.8780   3.6839   0.8576   H         1 RES1   0.0000
    36 C15      4.4296   3.0791   5.8620   C.3       1 RES1   0.0000
    37 H15      4.1808   2.1935   6.2284   H         1 RES1   0.0000
    38 H16      5.0919   3.4940   6.4692   H         1 RES1   0.0000
    39 C16      5.0210   2.9216   4.4753   C.3       1 RES1   0.0000
    40 H17      5.7521   2.2538   4.4890   H         1 RES1   0.0000
    41 H18      5.3906   3.7843   4.1613   H         1 RES1   0.0000
    42 C17      3.5783   0.5599   3.5202   C.ar      1 RES1   0.0000
    43 C18      4.4828  -0.1816   4.2771   C.ar      1 RES1   0.0000
    44 H19      5.2342   0.2441   4.6728   H         1 RES1   0.0000
    45 C19      4.2838  -1.5518   4.4527   C.ar      1 RES1   0.0000
    46 H20      4.9108  -2.0565   4.9563   H         1 RES1   0.0000
    47 C20      3.1906  -2.1770   3.9056   C.ar      1 RES1   0.0000
    48 H21      3.0530  -3.1056   4.0502   H         1 RES1   0.0000
    49 C21      2.2900  -1.4542   3.1441   C.ar      1 RES1   0.0000
    50 H22      1.5401  -1.8888   2.7538   H         1 RES1   0.0000
    51 C22      2.4848  -0.0908   2.9515   C.ar      1 RES1   0.0000
    52 H23      1.8660   0.4031   2.4261   H         1 RES1   0.0000
    53 C23      4.3369   2.6881   1.6920   C.ar      1 RES1   0.0000
    54 C24      4.8418   3.9613   1.3970   C.ar      1 RES1   0.0000
    55 H24      4.9140   4.6139   2.0842   H         1 RES1   0.0000
    56 C25      5.2376   4.2705   0.1002   C.ar      1 RES1   0.0000
    57 H25      5.5828   5.1341  -0.0940   H         1 RES1   0.0000
    58 C26      5.1303   3.3263  -0.9119   C.ar      1 RES1   0.0000
    59 H26      5.3766   3.5514  -1.8007   H         1 RES1   0.0000
    60 C27      4.6629   2.0513  -0.6213   C.ar      1 RES1   0.0000
    61 H27      4.6141   1.3960  -1.3078   H         1 RES1   0.0000
    62 C28      4.2650   1.7304   0.6728   C.ar      1 RES1   0.0000
    63 H28      3.9423   0.8576   0.8662   H         1 RES1   0.0000
    64 C29      2.2569   4.9401   3.3336   C.1       1 RES1   0.0000
    65 C30      1.4103   0.9677   5.9761   C.1       1 RES1   0.0000
    66 C31      1.2822  -0.2319   6.7751   C.3       1 RES1   0.0000
    67 H29      2.7638   3.8934   6.4777   H         1 RES1   0.0000
    68 H30      0.1221   3.8922   5.9307   H         1 RES1   0.0000
    69 H31      0.8767   5.0893   5.8623   H         1 RES1   0.0000
    70 H32      3.4925   4.8026   5.6557   H         1 RES1   0.0000
    71 H33      0.9248  -0.9440   6.2113   H         1 RES1   0.0000
    72 H34      0.6971  -0.0528   7.4935   H         1 RES1   0.0000
    73 H35      2.1992  -0.4948   7.0661   H         1 RES1   0.0000
    74 B1      -2.3124   1.8976   7.4479   B         2 RES2  -1.0000
    75 F1      -1.3712   1.2155   8.1881   F         2 RES2   0.0000
    76 F2      -1.6850   2.8828   6.6694   F         2 RES2   0.0000
    77 F3      -3.0072   1.0261   6.6191   F         2 RES2   0.0000
    78 F4      -3.2000   2.5470   8.3035   F         2 RES2   0.0000
    79 B2       2.3704   2.8706   9.3039   B         3 RES3  -1.0000
    80 F5       1.9177   3.3706  10.5063   F         3 RES3   0.0000
    81 F6       2.1276   1.5361   9.2003   F         3 RES3   0.0000
    82 F7       3.7366   3.1105   9.1966   F         3 RES3   0.0000
    83 F8       1.7400   3.5772   8.2621   F         3 RES3   0.0000
@<TRIPOS>BOND
     1     1     2    1
     2     2    11    1
     3     3     1    1
     4     4    64    3
     5     5     1    1
     6     6     1    1
     7     7     1    1
     8     8     5    1
     9     9     8    1
    10    10     8    1
    11    11     8    1
    12    12    11    1
    13    13    11    1
    14    14     2    1
    15    15    14   ar
    16    16    15    1
    17    17    15   ar
    18    18    17    1
    19    19    17   ar
    20    20    19    1
    21    21    19   ar
    22    22    21    1
    23    23    14   ar
    24    24    23    1
    25    25     2    1
    26    26    25   ar
    27    27    26    1
    28    28    26   ar
    29    29    28    1
    30    30    28   ar
    31    31    30    1
    32    32    30   ar
    33    33    32    1
    34    34    25   ar
    35    35    34    1
    36    36     6    1
    37    37    36    1
    38    38    36    1
    39    39     3    1
    40    40    39    1
    41    41    39    1
    42    42     3    1
    43    43    42   ar
    44    44    43    1
    45    45    43   ar
    46    46    45    1
    47    47    45   ar
    48    48    47    1
    49    49    47   ar
    50    50    49    1
    51    51    42   ar
    52    52    51    1
    53    53     3    1
    54    54    53   ar
    55    55    54    1
    56    56    54   ar
    57    57    56    1
    58    58    56   ar
    59    59    58    1
    60    60    58   ar
    61    61    60    1
    62    62    53   ar
    63    63    62    1
    64    64     1    1
    65    65     7    3
    66    66    65    1
    67    67     6    1
    68    68     5    1
    69    69     5    1
    70    70     6    1
    71    71    66    1
    72    72    66    1
    73    73    66    1
    74    21    23   ar
    75    32    34   ar
    76    36    39    1
    77    49    51   ar
    78    60    62   ar
    79    74    75    1
    80    76    74    1
    81    77    74    1
    82    78    74    1
    83    79    80    1
    84    81    79    1
    85    82    79    1
    86    83    79    1
@<TRIPOS>SUBSTRUCTURE
     1 RES1        1 GROUP             0 ****  ****    0  
     2 RES2       74 GROUP             0 ****  ****    0  
     3 RES3       79 GROUP             0 ****  ****    0  
@<TRIPOS>CRYSIN
    9.8383   11.7972   14.4190   98.1380   92.8000   95.0420     2     1
