@<TRIPOS>MOLECULE
ZEZPUT
   112   124     4     0     0
SMALL
USER_CHARGES
****
Generated from the CSD

@<TRIPOS>ATOM
     1 Fe1      2.7834   0.8959  11.8359   Fe        1 RES1   2.0000
     2 N1       4.1215   2.1997  12.4039   N.2       1 RES1   0.0000
     3 N2       3.7508  -0.1713  13.0571   N.ar      1 RES1   0.0000
     4 N3       1.6971  -0.7669  11.7015   N.2       1 RES1   0.0000
     5 N4       3.8259   0.5294  10.1762   N.2       1 RES1   0.0000
     6 N5       1.8586   2.0204  10.6360   N.ar      1 RES1   0.0000
     7 N6       1.4676   1.6871  13.0873   N.2       1 RES1   0.0000
     8 N7       5.8829   2.5679  13.7500   N.pl3     1 RES1   0.0000
     9 H1       6.5253   2.4261  14.3341   H         1 RES1   0.0000
    10 N8       5.7842  -2.6170  15.7907   N.2       1 RES1   0.0000
    11 N9       6.8844  -2.1252  16.1823   N.2       1 RES1   0.0000
    12 N10      1.3883  -2.8424  12.4102   N.pl3     1 RES1   0.0000
    13 H2       1.5131  -3.5995  12.8409   H         1 RES1   0.0000
    14 N11      4.2551   1.1267   8.0943   N.pl3     1 RES1   0.0000
    15 H3       4.1683   1.5255   7.3149   H         1 RES1   0.0000
    16 N12     -0.1523   4.4943   7.9056   N.2       1 RES1   0.0000
    17 N13     -1.0990   5.1544   8.3829   N.2       1 RES1   0.0000
    18 N14     -0.2172   3.1045  13.3489   N.pl3     1 RES1   0.0000
    19 H4      -0.8316   3.7054  13.1621   H         1 RES1   0.0000
    20 C1       4.9894   1.6833  13.3045   C.2       1 RES1   0.0000
    21 C2       5.5852   3.7820  13.0857   C.ar      1 RES1   0.0000
    22 C3       6.1743   5.0200  13.1808   C.ar      1 RES1   0.0000
    23 H5       6.9109   5.1810  13.7592   H         1 RES1   0.0000
    24 C4       5.6314   6.0264  12.3849   C.ar      1 RES1   0.0000
    25 H6       5.9968   6.9030  12.4042   H         1 RES1   0.0000
    26 C5       4.5641   5.7367  11.5715   C.ar      1 RES1   0.0000
    27 H7       4.2176   6.4468  11.0435   H         1 RES1   0.0000
    28 C6       3.9608   4.5271  11.4557   C.ar      1 RES1   0.0000
    29 H8       3.2238   4.3745  10.8752   H         1 RES1   0.0000
    30 C7       4.5140   3.5177  12.2628   C.ar      1 RES1   0.0000
    31 C8       4.8141   0.2898  13.6914   C.ar      1 RES1   0.0000
    32 C9       5.5297  -0.4557  14.6237   C.ar      1 RES1   0.0000
    33 H9       6.2726  -0.0849  15.0849   H         1 RES1   0.0000
    34 C10      5.1124  -1.7741  14.8568   C.ar      1 RES1   0.0000
    35 C11      3.9987  -2.2812  14.2400   C.ar      1 RES1   0.0000
    36 H10      3.6850  -3.1547  14.4419   H         1 RES1   0.0000
    37 C12      3.3163  -1.4559  13.2807   C.ar      1 RES1   0.0000
    38 C13      2.1613  -1.7508  12.5291   C.2       1 RES1   0.0000
    39 C14      0.3749  -2.5991  11.5160   C.ar      1 RES1   0.0000
    40 C15     -0.6815  -3.3276  11.0387   C.ar      1 RES1   0.0000
    41 H11     -0.8153  -4.2259  11.3189   H         1 RES1   0.0000
    42 C16     -1.5459  -2.7382  10.1460   C.ar      1 RES1   0.0000
    43 H12     -2.2609  -3.2502   9.7872   H         1 RES1   0.0000
    44 C17     -1.3997  -1.4009   9.7512   C.ar      1 RES1   0.0000
    45 H13     -2.0470  -0.9935   9.1890   H         1 RES1   0.0000
    46 C18     -0.3103  -0.6872  10.1857   C.ar      1 RES1   0.0000
    47 H14     -0.1634   0.1946   9.8646   H         1 RES1   0.0000
    48 C19      0.5868  -1.2584  11.1069   C.ar      1 RES1   0.0000
    49 C20      7.6362  -2.9168  17.0956   C.ar      1 RES1   0.0000
    50 C21      8.7650  -2.3499  17.5792   C.ar      1 RES1   0.0000
    51 H15      9.0085  -1.4758  17.2963   H         1 RES1   0.0000
    52 C22      9.5792  -3.0319  18.4893   C.ar      1 RES1   0.0000
    53 H16     10.3665  -2.6290  18.8367   H         1 RES1   0.0000
    54 C23      9.2131  -4.2906  18.8651   C.ar      1 RES1   0.0000
    55 H17      9.7619  -4.7693  19.4761   H         1 RES1   0.0000
    56 C24      8.0690  -4.8868  18.3846   C.ar      1 RES1   0.0000
    57 H18      7.8418  -5.7677  18.6583   H         1 RES1   0.0000
    58 C25      7.2523  -4.2048  17.5047   C.ar      1 RES1   0.0000
    59 H19      6.4489  -4.5978  17.1825   H         1 RES1   0.0000
    60 C26      3.4487   1.2918   9.1614   C.2       1 RES1   0.0000
    61 C27      5.2507   0.2156   8.4400   C.ar      1 RES1   0.0000
    62 C28      6.2949  -0.3157   7.7423   C.ar      1 RES1   0.0000
    63 H20      6.4856  -0.0482   6.8514   H         1 RES1   0.0000
    64 C29      7.0621  -1.2646   8.3972   C.ar      1 RES1   0.0000
    65 H21      7.7829  -1.6762   7.9354   H         1 RES1   0.0000
    66 C30      6.8018  -1.6329   9.7259   C.ar      1 RES1   0.0000
    67 H22      7.3726  -2.2560  10.1609   H         1 RES1   0.0000
    68 C31      5.7264  -1.1008  10.4108   C.ar      1 RES1   0.0000
    69 H23      5.5179  -1.3909  11.2908   H         1 RES1   0.0000
    70 C32      4.9485  -0.1212   9.7734   C.ar      1 RES1   0.0000
    71 C33      2.2801   2.1374   9.3501   C.ar      1 RES1   0.0000
    72 C34      1.6317   2.9661   8.4368   C.ar      1 RES1   0.0000
    73 H24      1.9301   3.0316   7.5369   H         1 RES1   0.0000
    74 C35      0.5398   3.6920   8.8776   C.ar      1 RES1   0.0000
    75 C36      0.1238   3.6265  10.2237   C.ar      1 RES1   0.0000
    76 H25     -0.6155   4.1372  10.5318   H         1 RES1   0.0000
    77 C37      0.8165   2.8021  11.0799   C.ar      1 RES1   0.0000
    78 C38      0.6632   2.5632  12.4832   C.2       1 RES1   0.0000
    79 C39      0.0310   2.5287  14.6047   C.ar      1 RES1   0.0000
    80 C40     -0.5485   2.7323  15.8414   C.ar      1 RES1   0.0000
    81 H26     -1.2409   3.3687  15.9752   H         1 RES1   0.0000
    82 C41     -0.0572   1.9501  16.8752   C.ar      1 RES1   0.0000
    83 H27     -0.4631   2.0162  17.7315   H         1 RES1   0.0000
    84 C42      1.0101   1.0691  16.7055   C.ar      1 RES1   0.0000
    85 H28      1.3435   0.5884  17.4536   H         1 RES1   0.0000
    86 C43      1.5841   0.8891  15.4783   C.ar      1 RES1   0.0000
    87 H29      2.2962   0.2716  15.3587   H         1 RES1   0.0000
    88 C44      1.0899   1.6418  14.3969   C.ar      1 RES1   0.0000
    89 C45     -1.8233   5.9076   7.4474   C.ar      1 RES1   0.0000
    90 C46     -1.6512   5.8682   6.0759   C.ar      1 RES1   0.0000
    91 H30     -0.9662   5.3328   5.6930   H         1 RES1   0.0000
    92 C47     -2.4936   6.6217   5.2657   C.ar      1 RES1   0.0000
    93 H31     -2.4012   6.5833   4.3208   H         1 RES1   0.0000
    94 C48     -3.4692   7.4303   5.8333   C.ar      1 RES1   0.0000
    95 H32     -4.0268   7.9579   5.2744   H         1 RES1   0.0000
    96 C49     -3.6308   7.4737   7.1572   C.ar      1 RES1   0.0000
    97 H33     -4.2951   8.0402   7.5308   H         1 RES1   0.0000
    98 C50     -2.8418   6.7040   7.9865   C.ar      1 RES1   0.0000
    99 H34     -2.9909   6.7147   8.9255   H         1 RES1   0.0000
   100 F1       5.5728  -3.9868  12.0154   F         2 RES2   0.0000
   101 F2       3.6890  -3.9076  10.7708   F         2 RES2   0.0000
   102 F3       4.2686  -5.8434  11.8252   F         2 RES2   0.0000
   103 F4       5.4487  -5.0898  10.0303   F         2 RES2   0.0000
   104 B1       4.7278  -4.6903  11.1893   B         2 RES2  -1.0000
   105 F5       3.8625  -0.0241  17.4825   F         3 RES3   0.0000
   106 F6       5.9274   0.1585  18.2990   F         3 RES3   0.0000
   107 F7       4.3599   1.7017  18.9111   F         3 RES3   0.0000
   108 F8       5.1947   1.7241  16.8054   F         3 RES3   0.0000
   109 B2       4.8265   0.8743  17.8868   B         3 RES3  -1.0000
   110 O1       6.2333   4.3622  16.6516   O.3       4 RES4   0.0000
   111 H35      6.1980   4.6492  17.4730   H         4 RES4   0.0000
   112 H36      5.4015   4.3218  16.4008   H         4 RES4   0.0000
@<TRIPOS>BOND
     1     1     2    1
     2     2    20    2
     3     3     1    1
     4     4     1    1
     5     5     1    1
     6     6     1    1
     7     7     1    1
     8     8     9    1
     9    10    11    2
    10    11    49    1
    11    12    13    1
    12    14    15    1
    13    16    17    2
    14    17    89    1
    15    18    19    1
    16    20     8    1
    17    21     8    1
    18    22    21   ar
    19    23    22    1
    20    24    22   ar
    21    25    24    1
    22    26    24   ar
    23    27    26    1
    24    28    26   ar
    25    29    28    1
    26    30     2    1
    27    31     3   ar
    28    32    31   ar
    29    33    32    1
    30    34    10    1
    31    35    34   ar
    32    36    35    1
    33    37     3   ar
    34    38     4    2
    35    39    12    1
    36    40    39   ar
    37    41    40    1
    38    42    40   ar
    39    43    42    1
    40    44    42   ar
    41    45    44    1
    42    46    44   ar
    43    47    46    1
    44    48     4    1
    45    49    50   ar
    46    50    51    1
    47    52    50   ar
    48    53    52    1
    49    54    52   ar
    50    55    54    1
    51    56    54   ar
    52    57    56    1
    53    58    49   ar
    54    59    58    1
    55    60     5    2
    56    61    14    1
    57    62    61   ar
    58    63    62    1
    59    64    62   ar
    60    65    64    1
    61    66    64   ar
    62    67    66    1
    63    68    66   ar
    64    69    68    1
    65    70     5    1
    66    71     6   ar
    67    72    71   ar
    68    73    72    1
    69    74    16    1
    70    75    74   ar
    71    76    75    1
    72    77     6   ar
    73    78     7    2
    74    79    18    1
    75    80    79   ar
    76    81    80    1
    77    82    80   ar
    78    83    82    1
    79    84    82   ar
    80    85    84    1
    81    86    84   ar
    82    87    86    1
    83    88     7    1
    84    89    90   ar
    85    90    91    1
    86    92    90   ar
    87    93    92    1
    88    94    92   ar
    89    95    94    1
    90    96    94   ar
    91    97    96    1
    92    98    89   ar
    93    99    98    1
    94    12    38    1
    95    14    60    1
    96    18    78    1
    97    20    31    1
    98    21    30   ar
    99    28    30   ar
   100    32    34   ar
   101    35    37   ar
   102    37    38    1
   103    39    48   ar
   104    46    48   ar
   105    56    58   ar
   106    60    71    1
   107    61    70   ar
   108    68    70   ar
   109    72    74   ar
   110    75    77   ar
   111    77    78    1
   112    79    88   ar
   113    86    88   ar
   114    96    98   ar
   115   100   104    1
   116   101   104    1
   117   102   104    1
   118   103   104    1
   119   105   109    1
   120   106   109    1
   121   107   109    1
   122   108   109    1
   123   110   111    1
   124   112   110    1
@<TRIPOS>SUBSTRUCTURE
     1 RES1        1 GROUP             0 ****  ****    0  
     2 RES2      100 GROUP             0 ****  ****    0  
     3 RES3      105 GROUP             0 ****  ****    0  
     4 RES4      110 GROUP             0 ****  ****    0  
@<TRIPOS>CRYSIN
   12.1509   12.4816   16.3600   95.5250  100.9980  106.2550     2     1
