@<TRIPOS>MOLECULE
ZEZQEE
    99   104     7     0     0
SMALL
USER_CHARGES
****
Generated from the CSD

@<TRIPOS>ATOM
     1 Fe1      8.2208   7.9926   4.1355   Fe        1 RES1   2.0000
     2 N1       9.5092   8.6578   2.9471   N.ar      1 RES1   0.0000
     3 N2       8.7549   6.1399   4.3369   N.2       1 RES1   0.0000
     4 N3       7.0996   9.6142   4.3759   N.2       1 RES1   0.0000
     5 N4       8.1063   5.3723   5.1476   N.2       1 RES1   0.0000
     6 N5       8.1520   7.7479   1.3331   N.2       1 RES1   0.0000
     7 N6       5.4338  10.5929   5.4973   N.2       1 RES1   0.0000
     8 N7       9.5432   8.7398   5.4334   N.2       1 RES1   0.0000
     9 N8       7.4610   7.5013   2.3983   N.2       1 RES1   0.0000
    10 N9       7.0082   7.3751   5.4351   N.ar      1 RES1   0.0000
    11 N10     11.4779   9.8276   5.7070   N.2       1 RES1   0.0000
    12 C1       9.3280   8.4271   1.6389   C.ar      1 RES1   0.0000
    13 C2       7.1515   6.1098   5.8528   C.ar      1 RES1   0.0000
    14 C3       5.8645  11.4964   4.5449   C.ar      1 RES1   0.0000
    15 C4       6.1895   9.4914   5.3486   C.2       1 RES1   0.0000
    16 C5       9.6594   5.4359   3.4660   C.ar      1 RES1   0.0000
    17 C6       6.3073   6.6927   2.1263   C.ar      1 RES1   0.0000
    18 C7      10.6125   9.3037   3.3857   C.ar      1 RES1   0.0000
    19 C8      10.1146   3.6525   1.9445   C.ar      1 RES1   0.0000
    20 H1       9.8344   2.8785   1.4695   H         1 RES1   0.0000
    21 C9       6.9198  10.8855   3.8454   C.ar      1 RES1   0.0000
    22 C10     11.5774   9.7525   2.4985   C.ar      1 RES1   0.0000
    23 H2      12.3448  10.2197   2.8064   H         1 RES1   0.0000
    24 C11     11.4039   4.1450   1.7698   C.ar      1 RES1   0.0000
    25 H3      12.0065   3.7015   1.1843   H         1 RES1   0.0000
    26 C12     10.5771   9.3401   4.8362   C.2       1 RES1   0.0000
    27 C13      5.3938  12.7703   4.2133   C.ar      1 RES1   0.0000
    28 H4       4.6740  13.1761   4.6823   H         1 RES1   0.0000
    29 C14     11.8101   5.2799   2.4462   C.ar      1 RES1   0.0000
    30 H5      12.6955   5.6038   2.3315   H         1 RES1   0.0000
    31 C15      9.0816   8.3892   7.9099   C.ar      1 RES1   0.0000
    32 H6       8.2448   7.9495   7.8123   H         1 RES1   0.0000
    33 C16     11.0198   9.5076   6.9694   C.ar      1 RES1   0.0000
    34 C17      7.5646  11.5463   2.7947   C.ar      1 RES1   0.0000
    35 H7       8.2863  11.1467   2.3239   H         1 RES1   0.0000
    36 C18      7.1013  12.8081   2.4744   C.ar      1 RES1   0.0000
    37 H8       7.5160  13.2856   1.7660   H         1 RES1   0.0000
    38 C19     10.2612   8.8253   0.6946   C.ar      1 RES1   0.0000
    39 H9      10.1329   8.6429  -0.2289   H         1 RES1   0.0000
    40 C20     10.9404   5.9460   3.2881   C.ar      1 RES1   0.0000
    41 H10     11.2133   6.7377   3.7366   H         1 RES1   0.0000
    42 C21      6.3407   5.7739   1.0784   C.ar      1 RES1   0.0000
    43 H11      7.1162   5.6902   0.5367   H         1 RES1   0.0000
    44 C22      9.7921   8.8423   6.8025   C.ar      1 RES1   0.0000
    45 C23      4.0925   5.1193   1.6298   C.ar      1 RES1   0.0000
    46 H12      3.3331   4.5724   1.4652   H         1 RES1   0.0000
    47 C24      9.2374   4.2863   2.8094   C.ar      1 RES1   0.0000
    48 H13      8.3637   3.9415   2.9512   H         1 RES1   0.0000
    49 C25      6.3998   5.6102   6.9012   C.ar      1 RES1   0.0000
    50 H14      6.5076   4.7135   7.1966   H         1 RES1   0.0000
    51 C26      6.1197   8.2044   6.0176   C.ar      1 RES1   0.0000
    52 C27     11.3889   9.4983   1.1413   C.ar      1 RES1   0.0000
    53 H15     12.0404   9.7905   0.5146   H         1 RES1   0.0000
    54 C28     11.5977   9.6986   8.2193   C.ar      1 RES1   0.0000
    55 H16     12.4387  10.1282   8.3219   H         1 RES1   0.0000
    56 C29      9.6357   8.6020   9.1524   C.ar      1 RES1   0.0000
    57 H17      9.1636   8.3178   9.9260   H         1 RES1   0.0000
    58 C30      5.2240   4.9831   0.8359   C.ar      1 RES1   0.0000
    59 H18      5.2345   4.3501   0.1275   H         1 RES1   0.0000
    60 C31     10.8837   9.2306   9.3033   C.ar      1 RES1   0.0000
    61 H19     11.2458   9.3347  10.1752   H         1 RES1   0.0000
    62 C32      4.0629   6.0400   2.6555   C.ar      1 RES1   0.0000
    63 H20      3.2799   6.1323   3.1847   H         1 RES1   0.0000
    64 C33      6.0304  13.4046   3.1700   C.ar      1 RES1   0.0000
    65 H21      5.7383  14.2711   2.9109   H         1 RES1   0.0000
    66 C34      5.4820   6.4561   7.5088   C.ar      1 RES1   0.0000
    67 H22      4.9515   6.1347   8.2285   H         1 RES1   0.0000
    68 C35      5.1709   6.8339   2.9198   C.ar      1 RES1   0.0000
    69 H23      5.1550   7.4632   3.6311   H         1 RES1   0.0000
    70 C36      5.3301   7.7745   7.0736   C.ar      1 RES1   0.0000
    71 H24      4.7057   8.3583   7.4881   H         1 RES1   0.0000
    72 F1       3.1675   8.6044   4.8714   F         2 RES2   0.0000
    73 F2       1.1176   7.7356   4.4383   F         2 RES2   0.0000
    74 F3       1.7064   8.2534   6.5806   F         2 RES2   0.0000
    75 F4       2.6759   6.4911   5.5434   F         2 RES2   0.0000
    76 B1       2.1664   7.7821   5.3501   B         2 RES2  -1.0000
    77 O1       3.2151  11.0178   6.9941   O.3       3 RES3   0.0000
    78 H25      3.0826  10.4007   7.5659   H         3 RES3   0.0000
    79 H26      2.7232  10.9207   6.5152   H         3 RES3   0.0000
    80 O2       1.3180  11.4517   4.9626   O.3       4 RES4   0.0000
    81 H27      1.7903  11.4407   4.1346   H         4 RES4   0.0000
    82 H28      1.3445  12.2208   5.1150   H         4 RES4   0.0000
    83 F5       3.2014   9.4222   9.2061   F         5 RES5   0.0000
    84 F6       2.8479   8.2895  11.1181   F         5 RES5   0.0000
    85 F7       3.7347  10.3670  11.1741   F         5 RES5   0.0000
    86 F8       1.5872  10.0412  10.5641   F         5 RES5   0.0000
    87 B2       2.8783   9.5656  10.5441   B         5 RES5  -1.0000
    88 O3      14.5776  11.4695   2.4345   O.3       6 RES6   0.0000
    89 H29     14.7221  12.2780   2.2580   H         6 RES6   0.0000
    90 C37     15.1881   9.3897   1.4254   C.3       6 RES6   0.0000
    91 H30     14.6333   8.9385   2.0955   H         6 RES6   0.0000
    92 H31     15.9493   8.8182   1.1928   H         6 RES6   0.0000
    93 H32     14.6535   9.5646   0.6228   H         6 RES6   0.0000
    94 C38     15.6850  10.6745   1.9778   C.3       6 RES6   0.0000
    95 H33     16.3014  10.4974   2.7325   H         6 RES6   0.0000
    96 H34     16.1845  11.1677   1.2803   H         6 RES6   0.0000
    97 O4       2.2109   6.4408   8.8423   O.3       7 RES7   0.0000
    98 H35      2.4622   6.8216   9.5267   H         7 RES7   0.0000
    99 H36      2.0798   7.0052   8.1413   H         7 RES7   0.0000
@<TRIPOS>BOND
     1     1     2    1
     2     2    12   ar
     3     3     1    1
     4     4     1    1
     5     5     3    2
     6     6     9    2
     7     7    14    1
     8     8     1    1
     9     9     1    1
    10    10     1    1
    11    11    26    2
    12    12     6    1
    13    13     5    1
    14    14    21   ar
    15    15     4    1
    16    16     3    1
    17    17     9    1
    18    18     2   ar
    19    19    20    1
    20    21     4    1
    21    22    18   ar
    22    23    22    1
    23    24    19   ar
    24    25    24    1
    25    26     8    1
    26    27    14   ar
    27    28    27    1
    28    29    24   ar
    29    30    29    1
    30    31    32    1
    31    33    11    1
    32    34    21   ar
    33    35    34    1
    34    36    34   ar
    35    37    36    1
    36    38    12   ar
    37    39    38    1
    38    40    16   ar
    39    41    40    1
    40    42    17   ar
    41    43    42    1
    42    44     8    1
    43    45    46    1
    44    47    16   ar
    45    48    47    1
    46    49    13   ar
    47    50    49    1
    48    51    10   ar
    49    52    22   ar
    50    53    52    1
    51    54    33   ar
    52    55    54    1
    53    56    31   ar
    54    57    56    1
    55    58    42   ar
    56    59    58    1
    57    60    54   ar
    58    61    60    1
    59    62    45   ar
    60    63    62    1
    61    64    27   ar
    62    65    64    1
    63    66    49   ar
    64    67    66    1
    65    68    17   ar
    66    69    68    1
    67    70    51   ar
    68    71    70    1
    69     7    15    2
    70    10    13   ar
    71    15    51    1
    72    18    26    1
    73    19    47   ar
    74    29    40   ar
    75    31    44   ar
    76    33    44   ar
    77    36    64   ar
    78    38    52   ar
    79    45    58   ar
    80    56    60   ar
    81    62    68   ar
    82    66    70   ar
    83    72    76    1
    84    73    76    1
    85    74    76    1
    86    75    76    1
    87    77    78    1
    88    79    77    1
    89    80    81    1
    90    82    80    1
    91    83    87    1
    92    84    87    1
    93    85    87    1
    94    86    87    1
    95    88    89    1
    96    90    91    1
    97    92    90    1
    98    93    90    1
    99    94    88    1
   100    95    94    1
   101    96    94    1
   102    90    94    1
   103    97    98    1
   104    99    97    1
@<TRIPOS>SUBSTRUCTURE
     1 RES1        1 GROUP             0 ****  ****    0  
     2 RES2       72 GROUP             0 ****  ****    0  
     3 RES3       77 GROUP             0 ****  ****    0  
     4 RES4       80 GROUP             0 ****  ****    0  
     5 RES5       83 GROUP             0 ****  ****    0  
     6 RES6       88 GROUP             0 ****  ****    0  
     7 RES7       97 GROUP             0 ****  ****    0  
@<TRIPOS>CRYSIN
   12.3214   15.2951   21.4537   90.0000   96.5790   90.0000   231     1
