@<TRIPOS>MOLECULE
ZICQIN
    75    83     3     0     0
SMALL
USER_CHARGES
****
Generated from the CSD

@<TRIPOS>ATOM
     1 C1      -2.8065   6.2970  20.6446   C.ar      1 RES1   0.0000
     2 C2      -2.3315   7.2681  21.5024   C.ar      1 RES1   0.0000
     3 H1      -2.9360   7.8618  21.8865   H         1 RES1   0.0000
     4 C3      -1.0013   7.3905  21.8060   C.ar      1 RES1   0.0000
     5 H2      -0.7143   8.0440  22.4017   H         1 RES1   0.0000
     6 C4      -0.0919   6.5339  21.2173   C.ar      1 RES1   0.0000
     7 H3       0.8139   6.6068  21.4173   H         1 RES1   0.0000
     8 C5      -0.5262   5.5757  20.3387   C.ar      1 RES1   0.0000
     9 H4       0.0913   5.0055  19.9385   H         1 RES1   0.0000
    10 C6      -1.8665   5.4456  20.0374   C.ar      1 RES1   0.0000
    11 C7      -4.2682   6.2423  20.3180   C.ar      1 RES1   0.0000
    12 C8      -4.8281   7.3397  19.6579   C.ar      1 RES1   0.0000
    13 H5      -4.2962   8.0831  19.4831   H         1 RES1   0.0000
    14 C9      -6.1295   7.3475  19.2646   C.ar      1 RES1   0.0000
    15 H6      -6.4763   8.0870  18.8184   H         1 RES1   0.0000
    16 C10     -6.9297   6.2670  19.5222   C.ar      1 RES1   0.0000
    17 H7      -7.8110   6.2592  19.2278   H         1 RES1   0.0000
    18 C11     -6.4255   5.1878  20.2237   C.ar      1 RES1   0.0000
    19 H8      -6.9738   4.4601  20.4100   H         1 RES1   0.0000
    20 C12     -5.1059   5.1826  20.6515   C.ar      1 RES1   0.0000
    21 C13     -2.8822   4.8936  17.8570   C.3       1 RES1   0.0000
    22 H9      -2.1868   4.9860  17.1877   H         1 RES1   0.0000
    23 H10     -3.2653   5.7723  18.0088   H         1 RES1   0.0000
    24 C14     -3.9434   3.9836  17.3326   C.ar      1 RES1   0.0000
    25 C15     -4.4967   4.1307  16.0837   C.ar      1 RES1   0.0000
    26 H11     -4.1862   4.7842  15.4995   H         1 RES1   0.0000
    27 C16     -5.5290   3.2819  15.7180   C.ar      1 RES1   0.0000
    28 H12     -5.9253   3.3743  14.8808   H         1 RES1   0.0000
    29 C17     -5.9680   2.3107  16.5690   C.ar      1 RES1   0.0000
    30 H13     -6.6555   1.7314  16.3298   H         1 RES1   0.0000
    31 C18     -5.3506   2.2248  17.7972   C.ar      1 RES1   0.0000
    32 C19     -6.6792   0.3463  18.7655   C.2       1 RES1   0.0000
    33 H14     -7.3507   0.2526  18.1284   H         1 RES1   0.0000
    34 C20     -6.5144  -0.4088  19.8626   C.2       1 RES1   0.0000
    35 H15     -7.0341  -1.1326  20.1294   H         1 RES1   0.0000
    36 C21     -5.4002   0.1159  20.5227   C.2       1 RES1   0.0000
    37 H16     -5.0663  -0.2083  21.3276   H         1 RES1   0.0000
    38 C22     -4.0068   4.3130  22.6961   C.3       1 RES1   0.0000
    39 H17     -4.6302   4.0656  23.3976   H         1 RES1   0.0000
    40 H18     -3.8332   5.2646  22.7766   H         1 RES1   0.0000
    41 C23     -2.7232   3.5618  22.8939   C.ar      1 RES1   0.0000
    42 C24     -1.9888   3.6334  24.0485   C.ar      1 RES1   0.0000
    43 H19     -2.2895   4.1411  24.7661   H         1 RES1   0.0000
    44 C25     -0.8005   2.9408  24.1336   C.ar      1 RES1   0.0000
    45 H20     -0.2891   3.0007  24.9064   H         1 RES1   0.0000
    46 C26     -0.3630   2.1728  23.1009   C.ar      1 RES1   0.0000
    47 H21      0.4320   1.6924  23.1561   H         1 RES1   0.0000
    48 C27     -1.1548   2.1324  21.9555   C.ar      1 RES1   0.0000
    49 C28      0.2421   0.6314  20.5434   C.2       1 RES1   0.0000
    50 H22      0.9887   0.5142  21.0839   H         1 RES1   0.0000
    51 C29      0.0460   0.0651  19.3336   C.2       1 RES1   0.0000
    52 H23      0.6058  -0.5285  18.8897   H         1 RES1   0.0000
    53 C30     -1.1643   0.5585  18.9035   C.2       1 RES1   0.0000
    54 H24     -1.5481   0.3515  18.0824   H         1 RES1   0.0000
    55 N1      -2.2719   4.4093  19.1236   N.pl3     1 RES1   0.0000
    56 N2      -4.3576   3.0320  18.1719   N.ar      1 RES1   0.0000
    57 N3      -5.6843   1.2719  18.7531   N.pl3     1 RES1   0.0000
    58 N4      -4.8876   1.1261  19.8607   N.2       1 RES1   0.0000
    59 N5      -4.6351   4.0435  21.3695   N.pl3     1 RES1   0.0000
    60 N6      -2.3165   2.8015  21.8704   N.ar      1 RES1   0.0000
    61 N7      -0.8312   1.3956  20.8272   N.pl3     1 RES1   0.0000
    62 N8      -1.7126   1.3578  19.7966   N.2       1 RES1   0.0000
    63 Fe1     -3.3980   2.7005  20.0521   Fe        1 RES1   2.0000
    64 H25     -1.6219   3.9706  18.9748   H         1 RES1   0.0000
    65 H26     -5.1946   3.5019  21.4242   H         1 RES1   0.0000
    66 Cl1     -7.1896   1.7937  23.2240   Cl        2 RES2   0.0000
    67 O1      -5.8511   1.9319  23.3355   O.2       2 RES2   0.0000
    68 O2      -7.5671   0.5051  23.0020   O.2       2 RES2   0.0000
    69 O3      -7.8900   2.2053  24.3061   O.2       2 RES2   0.0000
    70 O4      -7.5225   2.5893  22.1165   O.3       2 RES2  -1.0000
    71 Cl2      1.1562   3.4092  17.1934   Cl        3 RES3   0.0000
    72 O5       1.8957   3.1387  18.2664   O.2       3 RES3   0.0000
    73 O6       1.4962   2.7013  16.2194   O.2       3 RES3   0.0000
    74 O7       1.4305   4.6189  17.0290   O.2       3 RES3   0.0000
    75 O8      -0.2164   3.2702  17.4085   O.3       3 RES3  -1.0000
@<TRIPOS>BOND
     1     1     2   ar
     2     2     3    1
     3     4     2   ar
     4     5     4    1
     5     6     4   ar
     6     7     6    1
     7     8     6   ar
     8     9     8    1
     9    10     1   ar
    10    11     1    1
    11    12    11   ar
    12    13    12    1
    13    14    12   ar
    14    15    14    1
    15    16    14   ar
    16    17    16    1
    17    18    16   ar
    18    19    18    1
    19    20    11   ar
    20    21    22    1
    21    23    21    1
    22    24    21    1
    23    25    24   ar
    24    26    25    1
    25    27    25   ar
    26    28    27    1
    27    29    27   ar
    28    30    29    1
    29    31    29   ar
    30    32    33    1
    31    34    32    2
    32    35    34    1
    33    36    34    1
    34    37    36    1
    35    38    39    1
    36    40    38    1
    37    41    38    1
    38    42    41   ar
    39    43    42    1
    40    44    42   ar
    41    45    44    1
    42    46    44   ar
    43    47    46    1
    44    48    46   ar
    45    49    50    1
    46    51    49    2
    47    52    51    1
    48    53    51    1
    49    54    53    1
    50    55    10    1
    51    56    24   ar
    52    57    31    1
    53    58    36    2
    54    59    20    1
    55    60    41   ar
    56    61    48    1
    57    62    53    2
    58    63    55    1
    59    64    55    1
    60    65    59    1
    61     8    10   ar
    62    18    20   ar
    63    21    55    1
    64    31    56   ar
    65    32    57    1
    66    38    59    1
    67    48    60   ar
    68    49    61    1
    69    56    63    1
    70    57    58    1
    71    58    63    1
    72    59    63    1
    73    60    63    1
    74    61    62    1
    75    62    63    1
    76    66    67    2
    77    68    66    2
    78    69    66    2
    79    70    66    1
    80    71    72    2
    81    73    71    2
    82    74    71    2
    83    75    71    1
@<TRIPOS>SUBSTRUCTURE
     1 RES1        1 GROUP             0 ****  ****    0  
     2 RES2       66 GROUP             0 ****  ****    0  
     3 RES3       71 GROUP             0 ****  ****    0  
@<TRIPOS>CRYSIN
   10.6583   13.0183   23.5210   90.0000  102.0850   90.0000    14     1
