@<TRIPOS>MOLECULE
ZIFFEB
    99   106     1     0     0
SMALL
USER_CHARGES
****
Generated from the CSD

@<TRIPOS>ATOM
     1 Fe1      4.1150  16.1480   5.8406   Fe        1 RES1   2.0000
     2 Cl1      0.0791  12.9843  10.6392   Cl        1 RES1   0.0000
     3 N1       2.7982  14.7173   5.9165   N.1       1 RES1   0.0000
     4 N2       3.7270  16.7116   7.7130   N.ar      1 RES1   0.0000
     5 N3       5.5373  14.9999   6.6045   N.ar      1 RES1   0.0000
     6 N4       4.1228  14.5574   8.4443   N.pl3     1 RES1   0.0000
     7 N5       3.6175  12.3161   8.2387   N.ar      1 RES1   0.0000
     8 N6       2.2218  13.7759   9.4711   N.ar      1 RES1   0.0000
     9 N7       1.6590  11.4748   9.2853   N.ar      1 RES1   0.0000
    10 N8       2.9775  10.1006   8.0191   N.pl3     1 RES1   0.0000
    11 C1       1.9687  13.9212   5.8849   C.1       1 RES1   0.0000
    12 C2       3.4154  18.0276   7.9700   C.ar      1 RES1   0.0000
    13 H1       3.4087  18.6396   7.2446   H         1 RES1   0.0000
    14 C3       3.1148  18.5008   9.2234   C.ar      1 RES1   0.0000
    15 H2       2.8420  19.4034   9.3402   H         1 RES1   0.0000
    16 C4       3.2060  17.6917  10.2700   C.ar      1 RES1   0.0000
    17 H3       3.0336  18.0066  11.1485   H         1 RES1   0.0000
    18 C5       3.5671  16.3466  10.0364   C.ar      1 RES1   0.0000
    19 H4       3.6520  15.7491  10.7700   H         1 RES1   0.0000
    20 C6       3.7987  15.8929   8.7608   C.ar      1 RES1   0.0000
    21 C7       5.3467  14.3346   7.7703   C.ar      1 RES1   0.0000
    22 C8       6.3327  13.5869   8.3964   C.ar      1 RES1   0.0000
    23 H5       6.1691  13.1396   9.2176   H         1 RES1   0.0000
    24 C9       7.5490  13.5223   7.7796   C.ar      1 RES1   0.0000
    25 H6       8.2455  13.0153   8.1780   H         1 RES1   0.0000
    26 C10      7.7877  14.1796   6.5928   C.ar      1 RES1   0.0000
    27 H7       8.6348  14.1198   6.1665   H         1 RES1   0.0000
    28 C11      6.7665  14.9272   6.0333   C.ar      1 RES1   0.0000
    29 H8       6.9299  15.4036   5.2285   H         1 RES1   0.0000
    30 C12      3.2822  13.4933   8.7270   C.ar      1 RES1   0.0000
    31 C13      1.5024  12.6972   9.6790   C.ar      1 RES1   0.0000
    32 C14      2.7632  11.3117   8.5155   C.ar      1 RES1   0.0000
    33 C15      2.0511   8.9557   8.1815   C.3       1 RES1   0.0000
    34 H9       1.1615   9.3045   8.4384   H         1 RES1   0.0000
    35 H10      1.9530   8.5035   7.3065   H         1 RES1   0.0000
    36 C16      2.4626   7.9674   9.1650   C.3       1 RES1   0.0000
    37 H11      3.1241   7.3667   8.7690   H         1 RES1   0.0000
    38 H12      1.6775   7.4475   9.4477   H         1 RES1   0.0000
    39 H13      2.8478   8.4196   9.9418   H         1 RES1   0.0000
    40 C17      4.1601   9.8600   7.1699   C.3       1 RES1   0.0000
    41 H14      4.3037  10.6270   6.5625   H         1 RES1   0.0000
    42 H15      4.0212   9.0477   6.6185   H         1 RES1   0.0000
    43 C18      5.3509   9.6775   8.0518   C.3       1 RES1   0.0000
    44 H16      5.8238  10.5317   8.1417   H         1 RES1   0.0000
    45 H17      5.9515   9.0122   7.6570   H         1 RES1   0.0000
    46 H18      5.0590   9.3723   8.9361   H         1 RES1   0.0000
    47 B1       0.7809  12.8587   5.9048   B         1 RES1  -1.0000
    48 H19      0.3052  12.9168   6.7599   H         1 RES1   0.0000
    49 H20      1.1480  11.9560   5.7962   H         1 RES1   0.0000
    50 H21      0.1595  13.0492   5.1712   H         1 RES1   0.0000
    51 Cl1B     8.1509  19.3117   1.0420   Cl        1 RES1   0.0000
    52 N1B      5.4319  17.5787   5.7646   N.1       1 RES1   0.0000
    53 N2B      4.5031  15.5844   3.9681   N.ar      1 RES1   0.0000
    54 N3B      2.6927  17.2961   5.0766   N.ar      1 RES1   0.0000
    55 N4B      4.1073  17.7386   3.2368   N.pl3     1 RES1   0.0000
    56 N5B      4.6126  19.9799   3.4424   N.ar      1 RES1   0.0000
    57 N6B      6.0083  18.5201   2.2101   N.ar      1 RES1   0.0000
    58 N7B      6.5710  20.8212   2.3958   N.ar      1 RES1   0.0000
    59 N8B      5.2525  22.1954   3.6620   N.pl3     1 RES1   0.0000
    60 C1B      6.2613  18.3748   5.7962   C.1       1 RES1   0.0000
    61 C2B      4.8147  14.2684   3.7111   C.ar      1 RES1   0.0000
    62 H1B      4.8214  13.6564   4.4365   H         1 RES1   0.0000
    63 C3B      5.1153  13.7952   2.4577   C.ar      1 RES1   0.0000
    64 H2B      5.3881  12.8926   2.3409   H         1 RES1   0.0000
    65 C4B      5.0241  14.6043   1.4111   C.ar      1 RES1   0.0000
    66 H3B      5.1965  14.2894   0.5327   H         1 RES1   0.0000
    67 C5B      4.6630  15.9494   1.6447   C.ar      1 RES1   0.0000
    68 H4B      4.5780  16.5469   0.9111   H         1 RES1   0.0000
    69 C6B      4.4313  16.4031   2.9203   C.ar      1 RES1   0.0000
    70 C7B      2.8834  17.9614   3.9108   C.ar      1 RES1   0.0000
    71 C8B      1.8973  18.7091   3.2847   C.ar      1 RES1   0.0000
    72 H5B      2.0610  19.1564   2.4635   H         1 RES1   0.0000
    73 C9B      0.6811  18.7737   3.9015   C.ar      1 RES1   0.0000
    74 H6B     -0.0154  19.2807   3.5032   H         1 RES1   0.0000
    75 C10B     0.4423  18.1164   5.0883   C.ar      1 RES1   0.0000
    76 H7B     -0.4047  18.1762   5.5147   H         1 RES1   0.0000
    77 C11B     1.4636  17.3688   5.6478   C.ar      1 RES1   0.0000
    78 H8B      1.3002  16.8924   6.4527   H         1 RES1   0.0000
    79 C12B     4.9479  18.8027   2.9542   C.ar      1 RES1   0.0000
    80 C13B     6.7277  19.5988   2.0021   C.ar      1 RES1   0.0000
    81 C14B     5.4669  20.9843   3.1656   C.ar      1 RES1   0.0000
    82 C15B     6.1789  23.3403   3.4997   C.3       1 RES1   0.0000
    83 H9B      7.0685  22.9915   3.2427   H         1 RES1   0.0000
    84 H10B     6.2771  23.7925   4.3746   H         1 RES1   0.0000
    85 C16B     5.7675  24.3286   2.5161   C.3       1 RES1   0.0000
    86 H11B     5.1059  24.9293   2.9121   H         1 RES1   0.0000
    87 H12B     6.5526  24.8485   2.2334   H         1 RES1   0.0000
    88 H13B     5.3823  23.8764   1.7393   H         1 RES1   0.0000
    89 C17B     4.0700  22.4360   4.5112   C.3       1 RES1   0.0000
    90 H14B     3.9263  21.6690   5.1187   H         1 RES1   0.0000
    91 H15B     4.2089  23.2483   5.0626   H         1 RES1   0.0000
    92 C18B     2.8791  22.6185   3.6293   C.3       1 RES1   0.0000
    93 H16B     2.4063  21.7643   3.5394   H         1 RES1   0.0000
    94 H17B     2.2786  23.2838   4.0241   H         1 RES1   0.0000
    95 H18B     3.1711  22.9237   2.7451   H         1 RES1   0.0000
    96 B1B      7.4492  19.4373   5.7763   B         1 RES1  -1.0000
    97 H19B     7.9249  19.3792   4.9213   H         1 RES1   0.0000
    98 H20B     7.0821  20.3400   5.8849   H         1 RES1   0.0000
    99 H21B     8.0705  19.2468   6.5099   H         1 RES1   0.0000
@<TRIPOS>BOND
     1     1     3    1
     2     2    31    1
     3     3    11    3
     4     4     1    1
     5     5     1    1
     6     6    20    1
     7     7    30   ar
     8     8    30   ar
     9     9    31   ar
    10    10    32    1
    11    11    47    1
    12    12     4   ar
    13    13    12    1
    14    14    12   ar
    15    15    14    1
    16    16    14   ar
    17    17    16    1
    18    18    16   ar
    19    19    18    1
    20    20     4   ar
    21    21     5   ar
    22    22    21   ar
    23    23    22    1
    24    24    22   ar
    25    25    24    1
    26    26    24   ar
    27    27    26    1
    28    28     5   ar
    29    29    28    1
    30    30     6    1
    31    31     8   ar
    32    32     7   ar
    33    33    10    1
    34    34    33    1
    35    35    33    1
    36    36    33    1
    37    37    36    1
    38    38    36    1
    39    39    36    1
    40    40    10    1
    41    41    40    1
    42    42    40    1
    43    43    40    1
    44    44    43    1
    45    45    43    1
    46    46    43    1
    47    47    48    1
    48    49    47    1
    49    50    47    1
    50    51    80    1
    51    52     1    1
    52    53     1    1
    53    54     1    1
    54    55    69    1
    55    56    79   ar
    56    57    79   ar
    57    58    80   ar
    58    59    81    1
    59    60    52    3
    60    61    53   ar
    61    62    61    1
    62    63    61   ar
    63    64    63    1
    64    65    63   ar
    65    66    65    1
    66    67    65   ar
    67    68    67    1
    68    69    53   ar
    69    70    54   ar
    70    71    70   ar
    71    72    71    1
    72    73    71   ar
    73    74    73    1
    74    75    73   ar
    75    76    75    1
    76    77    54   ar
    77    78    77    1
    78    79    55    1
    79    80    57   ar
    80    81    56   ar
    81    82    59    1
    82    83    82    1
    83    84    82    1
    84    85    82    1
    85    86    85    1
    86    87    85    1
    87    88    85    1
    88    89    59    1
    89    90    89    1
    90    91    89    1
    91    92    89    1
    92    93    92    1
    93    94    92    1
    94    95    92    1
    95    96    60    1
    96    97    96    1
    97    98    96    1
    98    99    96    1
    99     6    21    1
   100     9    32   ar
   101    18    20   ar
   102    26    28   ar
   103    55    70    1
   104    58    81   ar
   105    67    69   ar
   106    75    77   ar
@<TRIPOS>SUBSTRUCTURE
     1 RES1        1 GROUP             0 ****  ****    0  
@<TRIPOS>CRYSIN
   10.6640   16.1480   11.9320   90.0000  101.7700   90.0000   231     1
