@<TRIPOS>MOLECULE
ZIFFOL
    93   100     1     0     0
SMALL
NO_CHARGES
****
Generated from the CSD

@<TRIPOS>ATOM
     1 Fe1     -1.6181   0.0000   5.8348   Fe        1 RES1   0.0000
     2 Cl1      2.3406  -3.5609   1.1435   Cl        1 RES1   0.0000
     3 S1       1.4114  -3.8389   5.6757   S.2       1 RES1   0.0000
     4 N1      -0.2527  -1.5918   5.8745   N.2       1 RES1   0.0000
     5 N2      -1.1939   0.4083   3.6829   N.ar      1 RES1   0.0000
     6 N3      -3.1967  -1.3009   5.0004   N.ar      1 RES1   0.0000
     7 N4      -1.7526  -1.8381   3.2266   N.pl3     1 RES1   0.0000
     8 N5       0.1636  -2.6746   2.2359   N.ar      1 RES1   0.0000
     9 N6      -1.3851  -4.0978   3.3620   N.ar      1 RES1   0.0000
    10 N7       0.5384  -5.0301   2.2791   N.ar      1 RES1   0.0000
    11 N8      -1.0349  -6.3789   3.3072   N.pl3     1 RES1   0.0000
    12 C1       0.4474  -2.5241   5.7951   C.1       1 RES1   0.0000
    13 C2      -0.9044   1.6513   3.2430   C.ar      1 RES1   0.0000
    14 H1      -0.7766   2.3406   3.8836   H         1 RES1   0.0000
    15 C3      -0.7872   1.9654   1.9126   C.ar      1 RES1   0.0000
    16 H2      -0.5470   2.8448   1.6466   H         1 RES1   0.0000
    17 C4      -1.0219   0.9918   0.9651   C.ar      1 RES1   0.0000
    18 H3      -0.9649   1.1935   0.0385   H         1 RES1   0.0000
    19 C5      -1.3410  -0.2843   1.3910   C.ar      1 RES1   0.0000
    20 H4      -1.5215  -0.9753   0.7644   H         1 RES1   0.0000
    21 C6      -1.3918  -0.5306   2.7493   C.ar      1 RES1   0.0000
    22 C7      -3.0166  -1.9869   3.8533   C.ar      1 RES1   0.0000
    23 C8      -4.0300  -2.7060   3.2395   C.ar      1 RES1   0.0000
    24 H5      -3.8694  -3.1705   2.4261   H         1 RES1   0.0000
    25 C9      -5.2782  -2.7374   3.8311   C.ar      1 RES1   0.0000
    26 H6      -5.9900  -3.2233   3.4332   H         1 RES1   0.0000
    27 C10     -5.4759  -2.0415   5.0237   C.ar      1 RES1   0.0000
    28 H7      -6.3239  -2.0415   5.4532   H         1 RES1   0.0000
    29 C11     -4.4144  -1.3555   5.5629   C.ar      1 RES1   0.0000
    30 H8      -4.5493  -0.8943   6.3821   H         1 RES1   0.0000
    31 C12     -0.9582  -2.9324   2.9244   C.ar      1 RES1   0.0000
    32 C13      0.8336  -3.7854   1.9978   C.ar      1 RES1   0.0000
    33 C14     -0.6222  -5.1342   2.9792   C.ar      1 RES1   0.0000
    34 C15     -2.1420  -6.5740   4.2244   C.3       1 RES1   0.0000
    35 H9      -2.5223  -7.4782   4.0913   H         1 RES1   0.0000
    36 H10     -2.8513  -5.9111   4.0260   H         1 RES1   0.0000
    37 C16     -1.7061  -6.4203   5.6726   C.3       1 RES1   0.0000
    38 H11     -0.9503  -7.0186   5.8500   H         1 RES1   0.0000
    39 H12     -2.4519  -6.6533   6.2642   H         1 RES1   0.0000
    40 H13     -1.4347  -5.4929   5.8359   H         1 RES1   0.0000
    41 C17     -0.3170  -7.5410   2.7902   C.3       1 RES1   0.0000
    42 H14     -0.0337  -7.3542   1.8601   H         1 RES1   0.0000
    43 H15     -0.9345  -8.3146   2.7657   H         1 RES1   0.0000
    44 C18      0.8918  -7.9080   3.6036   C.3       1 RES1   0.0000
    45 H16      1.5189  -7.1542   3.6152   H         1 RES1   0.0000
    46 H17      1.3283  -8.6898   3.2045   H         1 RES1   0.0000
    47 H18      0.6174  -8.1179   4.5196   H         1 RES1   0.0000
    48 Cl1B    -5.5769   3.5609  10.5261   Cl        1 RES1   0.0000
    49 S1B     -4.6476   3.8389   5.9938   S.2       1 RES1   0.0000
    50 N1B     -2.9836   1.5918   5.7951   N.2       1 RES1   0.0000
    51 N2B     -2.0423  -0.4083   7.9867   N.ar      1 RES1   0.0000
    52 N3B     -0.0396   1.3009   6.6692   N.ar      1 RES1   0.0000
    53 N4B     -1.4837   1.8381   8.4429   N.pl3     1 RES1   0.0000
    54 N5B     -3.3998   2.6746   9.4337   N.ar      1 RES1   0.0000
    55 N6B     -1.8512   4.0978   8.3076   N.ar      1 RES1   0.0000
    56 N7B     -3.7746   5.0301   9.3905   N.ar      1 RES1   0.0000
    57 N8B     -2.2013   6.3789   8.3624   N.pl3     1 RES1   0.0000
    58 C1B     -3.6837   2.5241   5.8745   C.1       1 RES1   0.0000
    59 C2B     -2.3318  -1.6513   8.4266   C.ar      1 RES1   0.0000
    60 H1B     -2.4597  -2.3406   7.7859   H         1 RES1   0.0000
    61 C3B     -2.4490  -1.9654   9.7569   C.ar      1 RES1   0.0000
    62 H2B     -2.6893  -2.8448  10.0230   H         1 RES1   0.0000
    63 C4B     -2.2144  -0.9918  10.7045   C.ar      1 RES1   0.0000
    64 H3B     -2.2714  -1.1935  11.6311   H         1 RES1   0.0000
    65 C5B     -1.8953   0.2843  10.2786   C.ar      1 RES1   0.0000
    66 H4B     -1.7148   0.9753  10.9052   H         1 RES1   0.0000
    67 C6B     -1.8444   0.5306   8.9202   C.ar      1 RES1   0.0000
    68 C7B     -0.2197   1.9869   7.8163   C.ar      1 RES1   0.0000
    69 C8B      0.7937   2.7060   8.4301   C.ar      1 RES1   0.0000
    70 H5B      0.6331   3.1705   9.2435   H         1 RES1   0.0000
    71 C9B      2.0419   2.7374   7.8384   C.ar      1 RES1   0.0000
    72 H6B      2.7538   3.2234   8.2364   H         1 RES1   0.0000
    73 C10B     2.2397   2.0415   6.6458   C.ar      1 RES1   0.0000
    74 H7B      3.0876   2.0415   6.2164   H         1 RES1   0.0000
    75 C11B     1.1782   1.3555   6.1067   C.ar      1 RES1   0.0000
    76 H8B      1.3130   0.8943   5.2875   H         1 RES1   0.0000
    77 C12B    -2.2781   2.9324   8.7452   C.ar      1 RES1   0.0000
    78 C13B    -4.0699   3.7854   9.6717   C.ar      1 RES1   0.0000
    79 C14B    -2.6141   5.1342   8.6903   C.ar      1 RES1   0.0000
    80 C15B    -1.0943   6.5740   7.4452   C.3       1 RES1   0.0000
    81 H9B     -0.7140   7.4782   7.5782   H         1 RES1   0.0000
    82 H10B    -0.3849   5.9111   7.6436   H         1 RES1   0.0000
    83 C16B    -1.5301   6.4203   5.9970   C.3       1 RES1   0.0000
    84 H11B    -2.2859   7.0186   5.8196   H         1 RES1   0.0000
    85 H12B    -0.7844   6.6533   5.4053   H         1 RES1   0.0000
    86 H13B    -1.8015   5.4929   5.8336   H         1 RES1   0.0000
    87 C17B    -2.9193   7.5410   8.8794   C.3       1 RES1   0.0000
    88 H14B    -3.2026   7.3542   9.8094   H         1 RES1   0.0000
    89 H15B    -2.3018   8.3146   8.9039   H         1 RES1   0.0000
    90 C18B    -4.1280   7.9080   8.0660   C.3       1 RES1   0.0000
    91 H16B    -4.7552   7.1542   8.0543   H         1 RES1   0.0000
    92 H17B    -4.5646   8.6898   8.4651   H         1 RES1   0.0000
    93 H18B    -3.8537   8.1179   7.1499   H         1 RES1   0.0000
@<TRIPOS>BOND
     1     1     4    1
     2     2    32    1
     3     3    12    2
     4     4    12    2
     5     5     1    1
     6     6     1    1
     7     7    21    1
     8     8    31   ar
     9     9    31   ar
    10    10    32   ar
    11    11    33    1
    12    13     5   ar
    13    14    13    1
    14    15    13   ar
    15    16    15    1
    16    17    15   ar
    17    18    17    1
    18    19    17   ar
    19    20    19    1
    20    21     5   ar
    21    22     6   ar
    22    23    22   ar
    23    24    23    1
    24    25    23   ar
    25    26    25    1
    26    27    25   ar
    27    28    27    1
    28    29     6   ar
    29    30    29    1
    30    31     7    1
    31    32     8   ar
    32    33     9   ar
    33    34    11    1
    34    35    34    1
    35    36    34    1
    36    37    34    1
    37    38    37    1
    38    39    37    1
    39    40    37    1
    40    41    11    1
    41    42    41    1
    42    43    41    1
    43    44    41    1
    44    45    44    1
    45    46    44    1
    46    47    44    1
    47    48    78    1
    48    49    58    2
    49    50     1    1
    50    51     1    1
    51    52     1    1
    52    53    67    1
    53    54    77   ar
    54    55    77   ar
    55    56    78   ar
    56    57    79    1
    57    58    50    2
    58    59    51   ar
    59    60    59    1
    60    61    59   ar
    61    62    61    1
    62    63    61   ar
    63    64    63    1
    64    65    63   ar
    65    66    65    1
    66    67    51   ar
    67    68    52   ar
    68    69    68   ar
    69    70    69    1
    70    71    69   ar
    71    72    71    1
    72    73    71   ar
    73    74    73    1
    74    75    52   ar
    75    76    75    1
    76    77    53    1
    77    78    54   ar
    78    79    55   ar
    79    80    57    1
    80    81    80    1
    81    82    80    1
    82    83    80    1
    83    84    83    1
    84    85    83    1
    85    86    83    1
    86    87    57    1
    87    88    87    1
    88    89    87    1
    89    90    87    1
    90    91    90    1
    91    92    90    1
    92    93    90    1
    93     7    22    1
    94    10    33   ar
    95    19    21   ar
    96    27    29   ar
    97    53    68    1
    98    56    79   ar
    99    65    67   ar
   100    73    75   ar
@<TRIPOS>SUBSTRUCTURE
     1 RES1        1 GROUP             0 ****  ****    0  
@<TRIPOS>CRYSIN
   10.1510   16.5300   12.1100   90.0000  105.5000   90.0000   231     1
