@<TRIPOS>MOLECULE
ZIFFIF
    93   100     1     0     0
SMALL
NO_CHARGES
****
Generated from the CSD

@<TRIPOS>ATOM
     1 Se1      6.7797   4.2991   5.6923   Se        1 RES1   0.0000
     2 Fe1      3.6278   8.2332   5.8877   Fe        1 RES1   0.0000
     3 Cl1      7.5632   4.6953   1.1900   Cl        1 RES1   0.0000
     4 N1       4.9967   6.6278   5.9018   N.2       1 RES1   0.0000
     5 N2       4.0332   8.6614   3.7410   N.ar      1 RES1   0.0000
     6 N3       2.0364   6.9423   5.0528   N.ar      1 RES1   0.0000
     7 N4       3.4793   6.4312   3.2665   N.pl3     1 RES1   0.0000
     8 N5       5.3955   5.5821   2.2750   N.ar      1 RES1   0.0000
     9 N6       3.8381   4.1561   3.3925   N.ar      1 RES1   0.0000
    10 N7       5.7639   3.2225   2.3009   N.ar      1 RES1   0.0000
    11 N8       4.2019   1.8854   3.3371   N.pl3     1 RES1   0.0000
    12 C1       5.7027   5.7221   5.8382   C.1       1 RES1   0.0000
    13 C2       4.3145   9.8931   3.3018   C.ar      1 RES1   0.0000
    14 H1       4.4578  10.5781   3.9436   H         1 RES1   0.0000
    15 C3       4.4089  10.2191   1.9688   C.ar      1 RES1   0.0000
    16 H2       4.6412  11.1017   1.7051   H         1 RES1   0.0000
    17 C4       4.1641   9.2591   1.0280   C.ar      1 RES1   0.0000
    18 H3       4.2087   9.4699   0.1024   H         1 RES1   0.0000
    19 C5       3.8533   7.9830   1.4378   C.ar      1 RES1   0.0000
    20 H4       3.6680   7.2980   0.8066   H         1 RES1   0.0000
    21 C6       3.8186   7.7261   2.8072   C.ar      1 RES1   0.0000
    22 C7       2.1998   6.2787   3.8988   C.ar      1 RES1   0.0000
    23 C8       1.1856   5.5887   3.2794   C.ar      1 RES1   0.0000
    24 H5       1.3403   5.1359   2.4587   H         1 RES1   0.0000
    25 C9      -0.0608   5.5624   3.8717   C.ar      1 RES1   0.0000
    26 H6      -0.7815   5.0980   3.4620   H         1 RES1   0.0000
    27 C10     -0.2414   6.2243   5.0681   C.ar      1 RES1   0.0000
    28 H7      -1.0847   6.2161   5.5062   H         1 RES1   0.0000
    29 C11      0.8210   6.8912   5.6098   C.ar      1 RES1   0.0000
    30 H8       0.6877   7.3474   6.4317   H         1 RES1   0.0000
    31 C12      4.2552   5.3269   2.9674   C.ar      1 RES1   0.0000
    32 C13      6.0504   4.4674   2.0312   C.ar      1 RES1   0.0000
    33 C14      4.6001   3.1188   3.0121   C.ar      1 RES1   0.0000
    34 C15      4.9583   0.7064   2.8755   C.3       1 RES1   0.0000
    35 H9       5.2309   0.8530   1.9359   H         1 RES1   0.0000
    36 H10      4.3583  -0.0807   2.8932   H         1 RES1   0.0000
    37 C16      6.1785   0.3935   3.6833   C.3       1 RES1   0.0000
    38 H11      5.9152   0.1795   4.6030   H         1 RES1   0.0000
    39 H12      6.7760   1.1691   3.6869   H         1 RES1   0.0000
    40 H13      6.6431  -0.3754   3.2900   H         1 RES1   0.0000
    41 C17      3.0668   1.6746   4.2391   C.3       1 RES1   0.0000
    42 H14      2.7077   0.7608   4.1025   H         1 RES1   0.0000
    43 H15      2.3498   2.3185   4.0166   H         1 RES1   0.0000
    44 C18      3.4569   1.8442   5.6875   C.3       1 RES1   0.0000
    45 H16      2.6933   1.6170   6.2598   H         1 RES1   0.0000
    46 H17      3.7210   2.7730   5.8476   H         1 RES1   0.0000
    47 H18      4.2089   1.2498   5.8947   H         1 RES1   0.0000
    48 Se1B     0.4759  12.1674   6.0830   Se        1 RES1   0.0000
    49 Cl1B    -0.3076  11.7712  10.5853   Cl        1 RES1   0.0000
    50 N1B      2.2589   9.8387   5.8735   N.2       1 RES1   0.0000
    51 N2B      3.2224   7.8051   8.0343   N.ar      1 RES1   0.0000
    52 N3B      5.2192   9.5242   6.7226   N.ar      1 RES1   0.0000
    53 N4B      3.7763  10.0353   8.5089   N.pl3     1 RES1   0.0000
    54 N5B      1.8602  10.8844   9.5004   N.ar      1 RES1   0.0000
    55 N6B      3.4175  12.3104   8.3829   N.ar      1 RES1   0.0000
    56 N7B      1.4917  13.2440   9.4745   N.ar      1 RES1   0.0000
    57 N8B      3.0537  14.5811   8.4382   N.pl3     1 RES1   0.0000
    58 C1B      1.5529  10.7444   5.9371   C.1       1 RES1   0.0000
    59 C2B      2.9411   6.5734   8.4735   C.ar      1 RES1   0.0000
    60 H1B      2.7979   5.8884   7.8318   H         1 RES1   0.0000
    61 C3B      2.8467   6.2474   9.8065   C.ar      1 RES1   0.0000
    62 H2B      2.6144   5.3648  10.0703   H         1 RES1   0.0000
    63 C4B      3.0916   7.2074  10.7474   C.ar      1 RES1   0.0000
    64 H3B      3.0469   6.9966  11.6729   H         1 RES1   0.0000
    65 C5B      3.4024   8.4835  10.3376   C.ar      1 RES1   0.0000
    66 H4B      3.5876   9.1685  10.9687   H         1 RES1   0.0000
    67 C6B      3.4371   8.7404   8.9681   C.ar      1 RES1   0.0000
    68 C7B      5.0559  10.1878   7.8765   C.ar      1 RES1   0.0000
    69 C8B      6.0700  10.8778   8.4959   C.ar      1 RES1   0.0000
    70 H5B      5.9153  11.3306   9.3167   H         1 RES1   0.0000
    71 C9B      7.3164  10.9041   7.9036   C.ar      1 RES1   0.0000
    72 H6B      8.0371  11.3685   8.3134   H         1 RES1   0.0000
    73 C10B     7.4970  10.2422   6.7072   C.ar      1 RES1   0.0000
    74 H7B      8.3403  10.2504   6.2692   H         1 RES1   0.0000
    75 C11B     6.4346   9.5753   6.1656   C.ar      1 RES1   0.0000
    76 H8B      6.5680   9.1191   5.3437   H         1 RES1   0.0000
    77 C12B     3.0004  11.1396   8.8080   C.ar      1 RES1   0.0000
    78 C13B     1.2052  11.9991   9.7441   C.ar      1 RES1   0.0000
    79 C14B     2.6555  13.3477   8.7632   C.ar      1 RES1   0.0000
    80 C15B     2.2973  15.7601   8.8998   C.3       1 RES1   0.0000
    81 H9B      2.0247  15.6135   9.8395   H         1 RES1   0.0000
    82 H10B     2.8973  16.5472   8.8822   H         1 RES1   0.0000
    83 C16B     1.0771  16.0730   8.0920   C.3       1 RES1   0.0000
    84 H11B     1.3404  16.2870   7.1724   H         1 RES1   0.0000
    85 H12B     0.4796  15.2974   8.0885   H         1 RES1   0.0000
    86 H13B     0.6125  16.8419   8.4853   H         1 RES1   0.0000
    87 C17B     4.1888  14.7919   7.5362   C.3       1 RES1   0.0000
    88 H14B     4.5479  15.7057   7.6728   H         1 RES1   0.0000
    89 H15B     4.9058  14.1480   7.7588   H         1 RES1   0.0000
    90 C18B     3.7987  14.6223   6.0879   C.3       1 RES1   0.0000
    91 H16B     4.5623  14.8495   5.5156   H         1 RES1   0.0000
    92 H17B     3.5347  13.6935   5.9277   H         1 RES1   0.0000
    93 H18B     3.0467  15.2167   5.8806   H         1 RES1   0.0000
@<TRIPOS>BOND
     1     1    12    2
     2     2     4    1
     3     3    32    1
     4     4    12    2
     5     5     2    1
     6     6     2    1
     7     7    21    1
     8     8    31   ar
     9     9    31   ar
    10    10    32   ar
    11    11    33    1
    12    13     5   ar
    13    14    13    1
    14    15    13   ar
    15    16    15    1
    16    17    15   ar
    17    18    17    1
    18    19    17   ar
    19    20    19    1
    20    21     5   ar
    21    22     6   ar
    22    23    22   ar
    23    24    23    1
    24    25    23   ar
    25    26    25    1
    26    27    25   ar
    27    28    27    1
    28    29     6   ar
    29    30    29    1
    30    31     7    1
    31    32     8   ar
    32    33     9   ar
    33    34    11    1
    34    35    34    1
    35    36    34    1
    36    37    34    1
    37    38    37    1
    38    39    37    1
    39    40    37    1
    40    41    11    1
    41    42    41    1
    42    43    41    1
    43    44    41    1
    44    45    44    1
    45    46    44    1
    46    47    44    1
    47    48    58    2
    48    49    78    1
    49    50     2    1
    50    51     2    1
    51    52     2    1
    52    53    67    1
    53    54    77   ar
    54    55    77   ar
    55    56    78   ar
    56    57    79    1
    57    58    50    2
    58    59    51   ar
    59    60    59    1
    60    61    59   ar
    61    62    61    1
    62    63    61   ar
    63    64    63    1
    64    65    63   ar
    65    66    65    1
    66    67    51   ar
    67    68    52   ar
    68    69    68   ar
    69    70    69    1
    70    71    69   ar
    71    72    71    1
    72    73    71   ar
    73    74    73    1
    74    75    52   ar
    75    76    75    1
    76    77    53    1
    77    78    54   ar
    78    79    55   ar
    79    80    57    1
    80    81    80    1
    81    82    80    1
    82    83    80    1
    83    84    83    1
    84    85    83    1
    85    86    83    1
    86    87    57    1
    87    88    87    1
    88    89    87    1
    89    90    87    1
    90    91    90    1
    91    92    90    1
    92    93    90    1
    93     7    22    1
    94    10    33   ar
    95    19    21   ar
    96    27    29   ar
    97    53    68    1
    98    56    79   ar
    99    65    67   ar
   100    73    75   ar
@<TRIPOS>SUBSTRUCTURE
     1 RES1        1 GROUP             0 ****  ****    0  
@<TRIPOS>CRYSIN
   10.3356   16.4665   12.1715   90.0000  104.6580   90.0000   231     1
