@<TRIPOS>MOLECULE
ZIFFAZ
    75    81     2     0     0
SMALL
NO_CHARGES
****
Generated from the CSD

@<TRIPOS>ATOM
     1 Fe1     11.1093   8.1397  11.2831   Fe        1 RES1   0.0000
     2 O1      12.4770   9.6292  11.2558   O.3       1 RES1   0.0000
     3 O2       9.9664   6.4614  11.5087   O.3       1 RES1   0.0000
     4 N1      12.6221   7.2495  12.5129   N.2       1 RES1   0.0000
     5 N2      10.3592   3.2099  12.8033   N.2       1 RES1   0.0000
     6 N3       9.6613   4.2251  12.1413   N.pl3     1 RES1   0.0000
     7 N4      12.0962   7.3397   9.3887   N.ar      1 RES1   0.0000
     8 N5       9.4482   9.0847  10.1899   N.ar      1 RES1   0.0000
     9 N6      10.3196   9.0501  13.1816   N.ar      1 RES1   0.0000
    10 C1      13.4601   9.4595  12.1412   C.ar      1 RES1   0.0000
    11 C2      12.7154   8.1317   8.4972   C.ar      1 RES1   0.0000
    12 H1      12.6798   9.0720   8.6280   H         1 RES1   0.0000
    13 C3       9.5605   9.8085   9.0679   C.ar      1 RES1   0.0000
    14 H2      10.4274  10.0925   8.8031   H         1 RES1   0.0000
    15 C4      10.0221   8.3087  14.2568   C.ar      1 RES1   0.0000
    16 H3       9.9981   7.3635  14.1646   H         1 RES1   0.0000
    17 C5      14.3751  10.4760  12.4166   C.ar      1 RES1   0.0000
    18 H4      14.2951  11.3104  11.9694   H         1 RES1   0.0000
    19 C6      15.3985  10.2902  13.3296   C.ar      1 RES1   0.0000
    20 H5      16.0182  10.9905  13.4945   H         1 RES1   0.0000
    21 C7      15.5227   9.0905  14.0024   C.ar      1 RES1   0.0000
    22 H6      16.2204   8.9710  14.6359   H         1 RES1   0.0000
    23 C8      14.6350   8.0664  13.7550   C.ar      1 RES1   0.0000
    24 H7      14.7245   7.2441  14.2231   H         1 RES1   0.0000
    25 C9      13.6074   8.2206  12.8277   C.ar      1 RES1   0.0000
    26 C10     12.6513   6.0446  12.9829   C.2       1 RES1   0.0000
    27 H8      13.4006   5.7719  13.4994   H         1 RES1   0.0000
    28 C11     11.5995   5.1134  12.7528   C.2       1 RES1   0.0000
    29 C12     11.4980   3.7567  13.1621   C.2       1 RES1   0.0000
    30 C13     10.3873   5.3967  12.0910   C.2       1 RES1   0.0000
    31 C14     12.5235   2.9728  13.9180   C.3       1 RES1   0.0000
    32 H9      12.2250   2.0436  14.0066   H         1 RES1   0.0000
    33 H10     12.6428   3.3639  14.8087   H         1 RES1   0.0000
    34 H11     13.3756   2.9973  13.4341   H         1 RES1   0.0000
    35 C15      8.3971   3.9442  11.5691   C.ar      1 RES1   0.0000
    36 C16      7.4712   4.9548  11.3450   C.ar      1 RES1   0.0000
    37 H12      7.6864   5.8535  11.5637   H         1 RES1   0.0000
    38 C17      6.2337   4.6496  10.8018   C.ar      1 RES1   0.0000
    39 H13      5.6027   5.3432  10.6507   H         1 RES1   0.0000
    40 C18      5.9066   3.3426  10.4768   C.ar      1 RES1   0.0000
    41 H14      5.0612   3.1390  10.0933   H         1 RES1   0.0000
    42 C19      6.8277   2.3365  10.7183   C.ar      1 RES1   0.0000
    43 H15      6.6023   1.4357  10.5151   H         1 RES1   0.0000
    44 C20      8.0662   2.6246  11.2499   C.ar      1 RES1   0.0000
    45 H16      8.6935   1.9272  11.3990   H         1 RES1   0.0000
    46 C21     12.1745   6.0257   9.1722   C.ar      1 RES1   0.0000
    47 H17     11.7360   5.4449   9.7824   H         1 RES1   0.0000
    48 C22     12.8556   5.4608   8.1147   C.ar      1 RES1   0.0000
    49 H18     12.8978   4.5174   8.0151   H         1 RES1   0.0000
    50 C23     13.4750   6.2907   7.2050   C.ar      1 RES1   0.0000
    51 H19     13.9415   5.9311   6.4596   H         1 RES1   0.0000
    52 C24     13.4026   7.6482   7.3995   C.ar      1 RES1   0.0000
    53 H20     13.8182   8.2454   6.7890   H         1 RES1   0.0000
    54 C25      8.2050   8.7386  10.5528   C.ar      1 RES1   0.0000
    55 H21      8.0925   8.2644  11.3682   H         1 RES1   0.0000
    56 C26      7.0800   9.0299   9.8124   C.ar      1 RES1   0.0000
    57 H22      6.2218   8.7397  10.0986   H         1 RES1   0.0000
    58 C27      7.2275   9.7545   8.6430   C.ar      1 RES1   0.0000
    59 H23      6.4736   9.9648   8.1045   H         1 RES1   0.0000
    60 C28      8.4901  10.1645   8.2762   C.ar      1 RES1   0.0000
    61 H24      8.6209  10.6835   7.4912   H         1 RES1   0.0000
    62 C29     10.3435  10.3741  13.3455   C.ar      1 RES1   0.0000
    63 H25     10.5586  10.9137  12.5938   H         1 RES1   0.0000
    64 C30     10.0744  11.0047  14.5401   C.ar      1 RES1   0.0000
    65 H26     10.0966  11.9522  14.6057   H         1 RES1   0.0000
    66 C31      9.7726  10.2266  15.6405   C.ar      1 RES1   0.0000
    67 H27      9.5847  10.6276  16.4810   H         1 RES1   0.0000
    68 C32      9.7485   8.8591  15.4940   C.ar      1 RES1   0.0000
    69 H28      9.5471   8.2997  16.2348   H         1 RES1   0.0000
    70 O3      12.7165  11.5096   9.4004   O.3       2 RES2   0.0000
    71 C33     11.8912  12.6092   9.6660   C.3       2 RES2   0.0000
    72 H29     11.9294  12.8514  10.5439   H         2 RES2   0.0000
    73 H30     10.9621  12.3955   9.4637   H         2 RES2   0.0000
    74 H31     12.0305  13.3498   9.0605   H         2 RES2   0.0000
    75 H32     12.6824  10.9336  10.0297   H         2 RES2   0.0000
@<TRIPOS>BOND
     1     1     2    1
     2     2    10    1
     3     3     1    1
     4     4     1    1
     5     5     6    1
     6     6    30    1
     7     7     1    1
     8     8     1    1
     9     9     1    1
    10    10    17   ar
    11    11     7   ar
    12    12    11    1
    13    13     8   ar
    14    14    13    1
    15    15     9   ar
    16    16    15    1
    17    17    18    1
    18    19    17   ar
    19    20    19    1
    20    21    19   ar
    21    22    21    1
    22    23    21   ar
    23    24    23    1
    24    25     4    1
    25    26     4    2
    26    27    26    1
    27    28    26    1
    28    29     5    2
    29    30     3    1
    30    31    29    1
    31    32    31    1
    32    33    31    1
    33    34    31    1
    34    35     6    1
    35    36    35   ar
    36    37    36    1
    37    38    36   ar
    38    39    38    1
    39    40    38   ar
    40    41    40    1
    41    42    40   ar
    42    43    42    1
    43    44    35   ar
    44    45    44    1
    45    46     7   ar
    46    47    46    1
    47    48    46   ar
    48    49    48    1
    49    50    48   ar
    50    51    50    1
    51    52    11   ar
    52    53    52    1
    53    54     8   ar
    54    55    54    1
    55    56    54   ar
    56    57    56    1
    57    58    56   ar
    58    59    58    1
    59    60    13   ar
    60    61    60    1
    61    62     9   ar
    62    63    62    1
    63    64    62   ar
    64    65    64    1
    65    66    64   ar
    66    67    66    1
    67    68    15   ar
    68    69    68    1
    69    10    25   ar
    70    23    25   ar
    71    28    29    1
    72    28    30    2
    73    42    44   ar
    74    50    52   ar
    75    58    60   ar
    76    66    68   ar
    77    70    71    1
    78    71    72    1
    79    73    71    1
    80    74    71    1
    81    75    70    1
@<TRIPOS>SUBSTRUCTURE
     1 RES1        1 GROUP             0 ****  ****    0  
     2 RES2       70 GROUP             0 ****  ****    0  
@<TRIPOS>CRYSIN
    9.0956   10.6885   15.7157   84.0530   76.5500   87.3150     2     1
