@<TRIPOS>MOLECULE
ZIFJON
    60    60     3     0     0
SMALL
NO_CHARGES
****
Generated from the CSD

@<TRIPOS>ATOM
     1 Fe1      5.0307   6.7998   3.7592   Fe        1 RES1   0.0000
     2 O1       6.5325   5.9126   2.5615   O.3       1 RES1   0.0000
     3 O2       6.1464   6.2729   5.4389   O.3       1 RES1   0.0000
     4 N1       3.9440   4.9819   3.9464   N.1       1 RES1   0.0000
     5 N2       1.2433   2.9113   6.7095   N.1       1 RES1   0.0000
     6 N3       3.8447  -1.5115  -1.2405   N.1       1 RES1   0.0000
     7 N4       1.4466  -3.7839   1.5653   N.1       1 RES1   0.0000
     8 C1       2.6426   1.7496   3.6675   C.2       1 RES1   0.0000
     9 C2       3.2960   1.8058   2.4006   C.2       1 RES1   0.0000
    10 C3       3.3213   0.7277   1.5751   C.2       1 RES1   0.0000
    11 C4       2.7024  -0.5011   1.9428   C.2       1 RES1   0.0000
    12 C5       2.0393  -0.5529   3.2014   C.2       1 RES1   0.0000
    13 C6       2.0111   0.5251   4.0291   C.2       1 RES1   0.0000
    14 C7       2.6211   2.8694   4.5329   C.2       1 RES1   0.0000
    15 C8       3.3319   4.0447   4.2111   C.1       1 RES1   0.0000
    16 C9       1.8662   2.8907   5.7434   C.1       1 RES1   0.0000
    17 C10      2.7252  -1.6140   1.0774   C.2       1 RES1   0.0000
    18 C11      3.3601  -1.5591  -0.1970   C.1       1 RES1   0.0000
    19 C12      2.0327  -2.8145   1.3616   C.1       1 RES1   0.0000
    20 C13      6.7226   4.5586   2.1465   C.3       1 RES1   0.0000
    21 C14      6.1428   6.9364   6.7020   C.3       1 RES1   0.0000
    22 O1A      3.5290   7.6871   4.9569   O.3       1 RES1   0.0000
    23 C13A     3.3389   9.0411   5.3719   C.3       1 RES1   0.0000
    24 O2A      3.9151   7.3267   2.0796   O.3       1 RES1   0.0000
    25 C14A     3.9187   6.6633   0.8165   C.3       1 RES1   0.0000
    26 N1A      6.1175   8.6178   3.5720   N.1       1 RES1   0.0000
    27 C8A      6.7296   9.5550   3.3074   C.1       1 RES1   0.0000
    28 C7A      7.4404  10.7302   2.9856   C.2       1 RES1   0.0000
    29 C1A      7.4189  11.8500   3.8510   C.2       1 RES1   0.0000
    30 C2A      6.7655  11.7939   5.1178   C.2       1 RES1   0.0000
    31 C3A      6.7402  12.8720   5.9433   C.2       1 RES1   0.0000
    32 C4A      7.3591  14.1008   5.5757   C.2       1 RES1   0.0000
    33 C5A      8.0222  14.1526   4.3171   C.2       1 RES1   0.0000
    34 C6A      8.0504  13.0746   3.4893   C.2       1 RES1   0.0000
    35 C10A     7.3363  15.2137   6.4411   C.2       1 RES1   0.0000
    36 C11A     6.7014  15.1588   7.7155   C.1       1 RES1   0.0000
    37 N3A      6.2168  15.1112   8.7590   N.1       1 RES1   0.0000
    38 C12A     8.0288  16.4142   6.1569   C.1       1 RES1   0.0000
    39 N4A      8.6149  17.3836   5.9531   N.1       1 RES1   0.0000
    40 C9A      8.1953  10.7090   1.7751   C.1       1 RES1   0.0000
    41 N2A      8.8182  10.6884   0.8090   N.1       1 RES1   0.0000
    42 N5       9.1845   2.0974   3.9840   N.1       2 RES2   0.0000
    43 N6      11.4320   4.5138   1.2067   N.1       2 RES2   0.0000
    44 C15     11.1730   1.1895  -0.3932   C.2       2 RES2   0.0000
    45 C16     10.4680   1.1211   0.8684   C.2       2 RES2   0.0000
    46 C17      9.8324  -0.1278   1.2127   C.2       2 RES2   0.0000
    47 C18     10.4049   2.2015   1.7112   C.2       2 RES2   0.0000
    48 C19     10.9914   3.4754   1.4135   C.1       2 RES2   0.0000
    49 C20      9.7222   2.1345   2.9728   C.1       2 RES2   0.0000
    50 C17A    11.2136   0.1278  -1.2127   C.2       2 RES2   0.0000
    51 C16A    10.5780  -1.1211  -0.8684   C.2       2 RES2   0.0000
    52 C15A     9.8730  -1.1895   0.3932   C.2       2 RES2   0.0000
    53 C18A    10.6411  -2.2015  -1.7112   C.2       2 RES2   0.0000
    54 C19A    10.0546  -3.4754  -1.4135   C.1       2 RES2   0.0000
    55 N6A      9.6140  -4.5138  -1.2067   N.1       2 RES2   0.0000
    56 C20A    11.3238  -2.1345  -2.9728   C.1       2 RES2   0.0000
    57 N5A     11.8615  -2.0974  -3.9840   N.1       2 RES2   0.0000
    58 N7      11.6111   6.4059   4.9682   N.1       3 RES3   0.0000
    59 C21      9.3287   5.2920   5.4246   C.3       3 RES3   0.0000
    60 C22     10.6097   5.9087   5.1554   C.1       3 RES3   0.0000
@<TRIPOS>BOND
     1     1     2    1
     2     2    20    1
     3     3     1    1
     4     4     1    1
     5     5    16    3
     6     6    18    3
     7     7    19    3
     8     8     9    1
     9     9    10    2
    10    10    11    1
    11    11    12    1
    12    12    13    2
    13    13     8    1
    14    14     8    2
    15    15     4    3
    16    16    14    1
    17    17    11    2
    18    18    17    1
    19    19    17    1
    20    21     3    1
    21    22     1    1
    22    23    22    1
    23    24     1    1
    24    25    24    1
    25    26     1    1
    26    27    26    3
    27    28    27    1
    28    29    28    2
    29    30    29    1
    30    31    30    2
    31    32    31    1
    32    33    32    1
    33    34    29    1
    34    35    32    2
    35    36    35    1
    36    37    36    3
    37    38    35    1
    38    39    38    3
    39    40    28    1
    40    41    40    3
    41    14    15    1
    42    33    34    2
    43    42    49    3
    44    43    48    3
    45    44    45    1
    46    45    46    1
    47    46    52    2
    48    47    45    2
    49    48    47    1
    50    49    47    1
    51    50    44    2
    52    51    50    1
    53    52    51    1
    54    53    51    2
    55    54    53    1
    56    55    54    3
    57    56    53    1
    58    57    56    3
    59    58    60    3
    60    59    60    1
@<TRIPOS>SUBSTRUCTURE
     1 RES1        1 GROUP             0 ****  ****    0  
     2 RES2       42 GROUP             0 ****  ****    0  
     3 RES3       58 GROUP             0 ****  ****    0  
@<TRIPOS>CRYSIN
   10.5230   14.0080    8.0620   94.9600  111.1100   79.9600     2     1
