@<TRIPOS>MOLECULE
ZIGYET
    85    92     5     0     0
SMALL
USER_CHARGES
****
Generated from the CSD

@<TRIPOS>ATOM
     1 Fe1     -0.4956   8.3988   8.7284   Fe        1 RES1   0.0000
     2 O1       1.0867   8.7595   7.5484   O.co2     1 RES1  -1.0000
     3 O2       0.5392   9.6352   9.9295   O.co2     1 RES1   0.0000
     4 O3       2.7918  10.2124   7.3249   O.co2     1 RES1   0.0000
     5 O4       2.3251  10.9819   9.9574   O.co2     1 RES1   0.0000
     6 O5       0.2348   6.8356   9.7759   O.co2     1 RES1  -1.0000
     7 O6       0.4202   4.6012   9.7724   O.co2     1 RES1   0.0000
     8 C1       1.8802   9.6954   7.9534   C.2       1 RES1   0.0000
     9 C2       1.5823  10.1663   9.3988   C.2       1 RES1   0.0000
    10 C3      -0.0138   5.6773   9.3255   C.2       1 RES1   0.0000
    11 O1A     -2.0780   8.7595   9.9085   O.co2     1 RES1  -1.0000
    12 C1A     -2.8715   9.6954   9.5035   C.2       1 RES1   0.0000
    13 O3A     -3.7831  10.2124  10.1320   O.co2     1 RES1   0.0000
    14 C2A     -2.5735  10.1663   8.0581   C.2       1 RES1   0.0000
    15 O2A     -1.5304   9.6352   7.5274   O.co2     1 RES1   0.0000
    16 C3A     -0.9774   5.6773   8.1314   C.2       1 RES1   0.0000
    17 O5A     -1.2261   6.8356   7.6810   O.co2     1 RES1   0.0000
    18 O6A     -1.4115   4.6012   7.6845   O.co2     1 RES1   0.0000
    19 O4A     -3.3164  10.9819   7.4995   O.co2     1 RES1   0.0000
    20 S1       2.4841   7.6593  19.5901   S.3       2 RES2   0.0000
    21 S2       0.0932   9.1463  18.7382   S.3       2 RES2   0.0000
    22 S3      -1.4432   8.5270  21.2171   S.3       2 RES2   0.0000
    23 S4       1.3724   6.8056  22.1947   S.3       2 RES2   0.0000
    24 S5       1.5553   9.8076  15.9102   S.3       2 RES2   0.0000
    25 S6       3.9088   8.2685  16.7900   S.3       2 RES2   1.0000
    26 S7       5.4526   8.6633  14.3251   S.3       2 RES2   0.0000
    27 S8       2.6106  10.4268  13.2183   S.3       2 RES2   0.0000
    28 C4       1.6872   8.5711  18.3262   C.2       2 RES2   0.0000
    29 C5       1.1018   7.6352  20.6899   C.2       2 RES2   0.0000
    30 C6       0.0160   8.3086  20.2779   C.2       2 RES2   0.0000
    31 C7       0.0319   7.4208  23.2770   C.3       2 RES2   0.0000
    32 C8      -0.6245   8.6713  22.8371   C.3       2 RES2   0.0000
    33 C9       2.2861   8.8316  17.1496   C.2       2 RES2   0.0000
    34 C10      2.8969   9.6773  14.7720   C.2       2 RES2   0.0000
    35 C11      3.9853   8.9719  15.2084   C.2       2 RES2   0.0000
    36 C12      4.2312  10.3126  12.4642   C.3       2 RES2   0.0000
    37 C13      4.9120   8.9940  12.6388   C.3       2 RES2   0.0000
    38 H1      -0.6441   6.7294  23.3433   H         2 RES2   0.0000
    39 H2       0.3960   7.5631  24.1638   H         2 RES2   0.0000
    40 H3       0.0411   9.3767  22.7917   H         2 RES2   0.0000
    41 H4      -1.2833   8.9298  23.5004   H         2 RES2   0.0000
    42 H5       4.1439  10.4909  11.5146   H         2 RES2   0.0000
    43 H6       4.7971  11.0040  12.8413   H         2 RES2   0.0000
    44 H7       5.6840   8.9619  12.0522   H         2 RES2   0.0000
    45 H8       4.3047   8.2905  12.3595   H         2 RES2   0.0000
    46 S9       2.1208   3.4850   1.7178   S.3       3 RES3   0.0000
    47 S10      4.5269   4.9439   2.6081   S.3       3 RES3   0.0000
    48 S11      0.6126   3.9098   4.2211   S.3       3 RES3   0.0000
    49 S12      3.5369   5.5290   5.3034   S.3       3 RES3   0.0000
    50 S13      3.4889   2.8717  -1.0963   S.3       3 RES3   0.0000
    51 S14      5.9394   4.2765  -0.2653   S.3       3 RES3   0.0000
    52 S15      4.4464   2.2084  -3.8126   S.3       3 RES3   0.0000
    53 S16      7.4095   3.8256  -2.7652   S.3       3 RES3   0.0000
    54 C14      3.7453   4.0381   1.3442   C.2       3 RES3   0.0000
    55 C15      2.0977   4.1763   3.3133   C.2       3 RES3   0.0000
    56 C16      3.1921   4.8457   3.7358   C.2       3 RES3   0.0000
    57 C17      1.3159   3.9539   5.8725   C.3       3 RES3   0.0000
    58 C18      1.9855   5.2545   6.1902   C.3       3 RES3   0.0000
    59 C19      4.3212   3.7595   0.1397   C.2       3 RES3   0.0000
    60 C20      4.8041   2.9359  -2.2729   C.2       3 RES3   0.0000
    61 C21      5.9054   3.5731  -1.8644   C.2       3 RES3   0.0000
    62 C22      6.1064   2.0561  -4.5213   C.3       3 RES3   0.0000
    63 C23      6.9218   3.3387  -4.4306   C.3       3 RES3   0.0000
    64 H9       0.6111   3.7956   6.5184   H         3 RES3   0.0000
    65 H10      1.9640   3.2385   5.9563   H         3 RES3   0.0000
    66 H11      2.1616   5.2866   7.1434   H         3 RES3   0.0000
    67 H12      1.3742   5.9779   5.9807   H         3 RES3   0.0000
    68 H13      6.5816   1.3467  -4.0605   H         3 RES3   0.0000
    69 H14      6.0263   1.8016  -5.4535   H         3 RES3   0.0000
    70 H15      6.4048   4.0601  -4.8216   H         3 RES3   0.0000
    71 H16      7.7237   3.2325  -4.9647   H         3 RES3   0.0000
    72 O7       4.6204  12.0561   8.7284   O.3       4 RES4   1.0000
    73 C24     -1.4869   2.1884  26.1853   C.ar      5 RES5   0.0000
    74 C25     -0.5145   2.8537  25.5115   C.ar      5 RES5   0.0000
    75 C26     -0.4889   4.2224  25.5115   C.ar      5 RES5   0.0000
    76 C27     -1.4869   4.9258  26.1853   C.ar      5 RES5   0.0000
    77 C28     -1.4869   6.3627  26.1853   C.1       5 RES5   0.0000
    78 N1      -1.4869   7.5050  26.1853   N.1       5 RES5   0.0000
    79 H17     -1.4869   1.2585  26.1853   H         5 RES5   0.0000
    80 H18      0.1369   2.3787  25.0506   H         5 RES5   0.0000
    81 H19      0.1891   4.6793  25.0681   H         5 RES5   0.0000
    82 C26A    -2.4849   4.2224  26.8592   C.ar      5 RES5   0.0000
    83 C25A    -2.4594   2.8537  26.8592   C.ar      5 RES5   0.0000
    84 H18A    -3.1107   2.3787  27.3200   H         5 RES5   0.0000
    85 H19A    -3.1629   4.6793  27.3026   H         5 RES5   0.0000
@<TRIPOS>BOND
     1     1     2    1
     2     2     8    1
     3     3     1    1
     4     4     8    2
     5     5     9    2
     6     6     1    1
     7     7    10    2
     8     8     9    1
     9     9     3    1
    10    10     6    1
    11    11     1    1
    12    12    11    1
    13    13    12    2
    14    14    12    1
    15    15     1    1
    16    16    10    1
    17    17     1    1
    18    18    16    2
    19    19    14    2
    20    14    15    1
    21    16    17    1
    22    20    28    1
    23    21    28    1
    24    22    30    1
    25    23    29    1
    26    24    33    1
    27    25    33    1
    28    26    35    1
    29    27    34    1
    30    28    33    2
    31    29    20    1
    32    30    21    1
    33    31    23    1
    34    32    22    1
    35    34    24    1
    36    35    25    1
    37    36    27    1
    38    37    26    1
    39    38    31    1
    40    39    31    1
    41    40    32    1
    42    41    32    1
    43    42    36    1
    44    43    36    1
    45    44    37    1
    46    45    37    1
    47    29    30    2
    48    31    32    1
    49    34    35    2
    50    36    37    1
    51    46    54    1
    52    47    54    1
    53    48    55    1
    54    49    56    1
    55    50    59    1
    56    51    59    1
    57    52    60    1
    58    53    61    1
    59    54    59    2
    60    55    46    1
    61    56    47    1
    62    57    48    1
    63    58    49    1
    64    60    50    1
    65    61    51    1
    66    62    52    1
    67    63    53    1
    68    64    57    1
    69    65    57    1
    70    66    58    1
    71    67    58    1
    72    68    62    1
    73    69    62    1
    74    70    63    1
    75    71    63    1
    76    55    56    2
    77    57    58    1
    78    60    61    2
    79    62    63    1
    80    73    74   ar
    81    74    75   ar
    82    75    76   ar
    83    76    77    1
    84    77    78    3
    85    79    73    1
    86    80    74    1
    87    81    75    1
    88    82    76   ar
    89    83    73   ar
    90    84    83    1
    91    85    82    1
    92    82    83   ar
@<TRIPOS>SUBSTRUCTURE
     1 RES1        1 GROUP             0 ****  ****    0  
     2 RES2       20 GROUP             0 ****  ****    0  
     3 RES3       46 GROUP             0 ****  ****    0  
     4 RES4       72 GROUP             0 ****  ****    0  
     5 RES5       73 GROUP             0 ****  ****    0  
@<TRIPOS>CRYSIN
   10.2320   20.0400   34.9700   90.0000   93.2500   90.0000    15     1
