@<TRIPOS>MOLECULE
ZIHJAE
   124   135     1     0     0
SMALL
NO_CHARGES
****
Generated from the CSD

@<TRIPOS>ATOM
     1 C1       2.6029  11.2286   4.2625   C.2       1 RES1   0.0000
     2 H1       3.0183  10.3911   4.1000   H         1 RES1   0.0000
     3 C2       2.8112  12.3901   3.5700   C.2       1 RES1   0.0000
     4 H2       3.3987  12.5092   2.8320   H         1 RES1   0.0000
     5 C3       1.9911  13.3754   4.1571   C.2       1 RES1   0.0000
     6 H3       1.9514  14.2802   3.8722   H         1 RES1   0.0000
     7 C4      -1.2231  12.1775   8.4065   C.2       1 RES1   0.0000
     8 H4      -1.7173  12.9104   8.7527   H         1 RES1   0.0000
     9 C5      -1.3082  10.8607   8.8909   C.2       1 RES1   0.0000
    10 H5      -1.8518  10.5574   9.6077   H         1 RES1   0.0000
    11 C6      -0.4589  10.0963   8.1300   C.2       1 RES1   0.0000
    12 H6      -0.3096   9.1626   8.2152   H         1 RES1   0.0000
    13 C7       1.0997  10.6445   6.2243   C.2       1 RES1   0.0000
    14 C8       1.6402  11.5175   5.2770   C.2       1 RES1   0.0000
    15 C9       0.1559  10.9721   7.1867   C.2       1 RES1   0.0000
    16 C10      1.5981   9.2341   6.1925   C.ar      1 RES1   0.0000
    17 C11      2.3749   8.7238   7.2160   C.ar      1 RES1   0.0000
    18 C12      2.8342   7.4103   7.1978   C.ar      1 RES1   0.0000
    19 C13      2.5412   6.5471   6.1470   C.ar      1 RES1   0.0000
    20 C14      1.7632   7.0611   5.1159   C.ar      1 RES1   0.0000
    21 C15      1.3146   8.3719   5.1443   C.ar      1 RES1   0.0000
    22 C16      3.5679   4.6457   5.0810   C.3       1 RES1   0.0000
    23 H7       3.5979   5.2922   4.3323   H         1 RES1   0.0000
    24 H8       3.0267   3.8663   4.7970   H         1 RES1   0.0000
    25 C17      4.9540   4.2022   5.4242   C.3       1 RES1   0.0000
    26 H9       4.9252   3.6044   6.2138   H         1 RES1   0.0000
    27 H10      5.5049   4.9908   5.6580   H         1 RES1   0.0000
    28 C18      5.5907   3.4670   4.2534   C.3       1 RES1   0.0000
    29 H11      4.9840   2.7417   3.9603   H         1 RES1   0.0000
    30 H12      5.6945   4.0970   3.4972   H         1 RES1   0.0000
    31 C19      6.9438   2.8685   4.5829   C.3       1 RES1   0.0000
    32 H13      7.2918   2.3946   3.7993   H         1 RES1   0.0000
    33 H14      6.8502   2.2408   5.3300   H         1 RES1   0.0000
    34 H15      7.5642   3.5856   4.8350   H         1 RES1   0.0000
    35 F1       2.7444   9.4944   8.2453   F         1 RES1   0.0000
    36 F2       3.5932   6.9732   8.2193   F         1 RES1   0.0000
    37 F3       1.4015   6.2829   4.0851   F         1 RES1   0.0000
    38 F4       0.5212   8.7729   4.1401   F         1 RES1   0.0000
    39 Fe1     -0.0012  13.8583   6.2917   Fe        1 RES1   0.0000
    40 N1       1.2765  12.8628   5.1721   N.2       1 RES1   0.0000
    41 N2      -0.3468  12.2610   7.3917   N.2       1 RES1   0.0000
    42 O1       2.9586   5.2700   6.2510   O.3       1 RES1   0.0000
    43 C1A      0.9753  17.4262   4.2625   C.2       1 RES1   0.0000
    44 H1A      1.4929  18.2047   4.1000   H         1 RES1   0.0000
    45 C2A     -0.1348  17.0259   3.5700   C.2       1 RES1   0.0000
    46 H2A     -0.5316  17.4751   2.8320   H         1 RES1   0.0000
    47 C3A     -0.5780  15.8230   4.1571   C.2       1 RES1   0.0000
    48 H3A     -1.3417  15.3362   3.8722   H         1 RES1   0.0000
    49 C4A      2.0666  13.6383   8.4065   C.2       1 RES1   0.0000
    50 H4A      1.6789  12.8439   8.7527   H         1 RES1   0.0000
    51 C5A      3.2495  14.2231   8.8909   C.2       1 RES1   0.0000
    52 H5A      3.7839  13.9040   9.6077   H         1 RES1   0.0000
    53 C6A      3.4868  15.3407   8.1300   C.2       1 RES1   0.0000
    54 H6A      4.2208  15.9369   8.2152   H         1 RES1   0.0000
    55 C7A      2.2328  16.4164   6.2243   C.2       1 RES1   0.0000
    56 C8A      1.2065  16.4480   5.2770   C.2       1 RES1   0.0000
    57 C9A      2.4210  15.4353   7.1867   C.2       1 RES1   0.0000
    58 C10A     3.2050  17.5532   6.1925   C.ar      1 RES1   0.0000
    59 C11A     3.2585  18.4811   7.2160   C.ar      1 RES1   0.0000
    60 C12A     4.1664  19.5356   7.1978   C.ar      1 RES1   0.0000
    61 C13A     5.0605  19.7136   6.1470   C.ar      1 RES1   0.0000
    62 C14A     5.0043  18.7827   5.1159   C.ar      1 RES1   0.0000
    63 C15A     4.0934  17.7389   5.1443   C.ar      1 RES1   0.0000
    64 C16A     6.1937  21.5534   5.0810   C.3       1 RES1   0.0000
    65 H7A      5.6189  21.2561   4.3323   H         1 RES1   0.0000
    66 H8A      7.1394  21.4744   4.7970   H         1 RES1   0.0000
    67 C17A     5.8848  22.9756   5.4242   C.3       1 RES1   0.0000
    68 H9A      6.4169  23.2495   6.2138   H         1 RES1   0.0000
    69 H10A     4.9264  23.0583   5.6580   H         1 RES1   0.0000
    70 C18A     6.2032  23.8945   4.2534   C.3       1 RES1   0.0000
    71 H11A     7.1346  23.7318   3.9603   H         1 RES1   0.0000
    72 H12A     5.6057  23.6694   3.4972   H         1 RES1   0.0000
    73 C19A     6.0449  25.3656   4.5829   C.3       1 RES1   0.0000
    74 H13A     6.2813  25.9039   3.7993   H         1 RES1   0.0000
    75 H14A     6.6354  25.5984   5.3300   H         1 RES1   0.0000
    76 H15A     5.1136  25.5443   4.8350   H         1 RES1   0.0000
    77 F1A      2.4064  18.4159   8.2453   F         1 RES1   0.0000
    78 F2A      4.1654  20.4116   8.2193   F         1 RES1   0.0000
    79 F3A      5.8591  18.8586   4.0851   F         1 RES1   0.0000
    80 F4A      4.1429  16.8513   4.1401   F         1 RES1   0.0000
    81 N1A      0.2232  15.4605   5.1721   N.2       1 RES1   0.0000
    82 N2A      1.5560  14.3555   7.3917   N.2       1 RES1   0.0000
    83 O1A      5.9578  20.7136   6.2510   O.3       1 RES1   0.0000
    84 C1B     -3.5782  12.9179   4.2625   C.2       1 RES1   0.0000
    85 H1B     -4.5112  12.9769   4.1000   H         1 RES1   0.0000
    86 C2B     -2.6765  12.1567   3.5700   C.2       1 RES1   0.0000
    87 H2B     -2.8670  11.5884   2.8320   H         1 RES1   0.0000
    88 C3B     -1.4131  12.3743   4.1571   C.2       1 RES1   0.0000
    89 H3B     -0.6097  11.9563   3.8722   H         1 RES1   0.0000
    90 C4B     -0.8434  15.7569   8.4065   C.2       1 RES1   0.0000
    91 H4B      0.0384  15.8184   8.7527   H         1 RES1   0.0000
    92 C5B     -1.9413  16.4890   8.8909   C.2       1 RES1   0.0000
    93 H5B     -1.9322  17.1113   9.6077   H         1 RES1   0.0000
    94 C6B     -3.0279  16.1356   8.1300   C.2       1 RES1   0.0000
    95 H6B     -3.9111  16.4732   8.2152   H         1 RES1   0.0000
    96 C7B     -3.3324  14.5118   6.2243   C.2       1 RES1   0.0000
    97 C8B     -2.8466  13.6072   5.2770   C.2       1 RES1   0.0000
    98 C9B     -2.5769  15.1653   7.1867   C.2       1 RES1   0.0000
    99 C10B    -4.8030  14.7853   6.1925   C.ar      1 RES1   0.0000
   100 C11B    -5.6334  14.3677   7.2160   C.ar      1 RES1   0.0000
   101 C12B    -7.0005  14.6267   7.1978   C.ar      1 RES1   0.0000
   102 C13B    -7.6017  15.3121   6.1470   C.ar      1 RES1   0.0000
   103 C14B    -6.7675  15.7288   5.1159   C.ar      1 RES1   0.0000
   104 C15B    -5.4080  15.4619   5.1443   C.ar      1 RES1   0.0000
   105 C16B    -9.7616  15.3736   5.0810   C.3       1 RES1   0.0000
   106 H7B     -9.2168  15.0244   4.3323   H         1 RES1   0.0000
   107 H8B    -10.1660  16.2321   4.7970   H         1 RES1   0.0000
   108 C17B   -10.8388  14.3950   5.4242   C.3       1 RES1   0.0000
   109 H9B    -11.3421  14.7188   6.2138   H         1 RES1   0.0000
   110 H10B   -10.4313  13.5236   5.6580   H         1 RES1   0.0000
   111 C18B   -11.7939  14.2112   4.2534   C.3       1 RES1   0.0000
   112 H11B   -12.1186  15.0992   3.9603   H         1 RES1   0.0000
   113 H12B   -11.3001  13.8063   3.4972   H         1 RES1   0.0000
   114 C19B   -12.9887  13.3386   4.5829   C.3       1 RES1   0.0000
   115 H13B   -13.5731  13.2742   3.7993   H         1 RES1   0.0000
   116 H14B   -13.4855  13.7335   5.3300   H         1 RES1   0.0000
   117 H15B   -12.6779  12.4427   4.8350   H         1 RES1   0.0000
   118 F1B     -5.1508  13.6624   8.2453   F         1 RES1   0.0000
   119 F2B     -7.7586  14.1879   8.2193   F         1 RES1   0.0000
   120 F3B     -7.2606  16.4312   4.0851   F         1 RES1   0.0000
   121 F4B     -4.6641  15.9485   4.1401   F         1 RES1   0.0000
   122 N1B     -1.4998  13.2494   5.1721   N.2       1 RES1   0.0000
   123 N2B     -1.2092  14.9562   7.3917   N.2       1 RES1   0.0000
   124 O1B     -8.9164  15.5891   6.2510   O.3       1 RES1   0.0000
@<TRIPOS>BOND
     1     1     2    1
     2     3     1    2
     3     4     3    1
     4     5     3    1
     5     6     5    1
     6     7     8    1
     7     9     7    2
     8    10     9    1
     9    11     9    1
    10    12    11    1
    11    13    14    2
    12    14     1    1
    13    15    11    2
    14    16    13    1
    15    17    16   ar
    16    18    17   ar
    17    19    18   ar
    18    20    19   ar
    19    21    16   ar
    20    22    23    1
    21    24    22    1
    22    25    22    1
    23    26    25    1
    24    27    25    1
    25    28    25    1
    26    29    28    1
    27    30    28    1
    28    31    28    1
    29    32    31    1
    30    33    31    1
    31    34    31    1
    32    35    17    1
    33    36    18    1
    34    37    20    1
    35    38    21    1
    36    39    40    1
    37    40     5    2
    38    41     7    1
    39    42    19    1
    40    43    44    1
    41    45    43    2
    42    46    45    1
    43    47    45    1
    44    48    47    1
    45    49    50    1
    46    51    49    2
    47    52    51    1
    48    53    51    1
    49    54    53    1
    50    55    56    2
    51    56    43    1
    52    57    53    2
    53    58    55    1
    54    59    58   ar
    55    60    59   ar
    56    61    60   ar
    57    62    61   ar
    58    63    58   ar
    59    64    65    1
    60    66    64    1
    61    67    64    1
    62    68    67    1
    63    69    67    1
    64    70    67    1
    65    71    70    1
    66    72    70    1
    67    73    70    1
    68    74    73    1
    69    75    73    1
    70    76    73    1
    71    77    59    1
    72    78    60    1
    73    79    62    1
    74    80    63    1
    75    81    39    1
    76    82    39    1
    77    83    61    1
    78    84    85    1
    79    86    84    2
    80    87    86    1
    81    88    86    1
    82    89    88    1
    83    90    91    1
    84    92    90    2
    85    93    92    1
    86    94    92    1
    87    95    94    1
    88    96    97    2
    89    97    84    1
    90    98    94    2
    91    99    96    1
    92   100    99   ar
    93   101   100   ar
    94   102   101   ar
    95   103   102   ar
    96   104    99   ar
    97   105   106    1
    98   107   105    1
    99   108   105    1
   100   109   108    1
   101   110   108    1
   102   111   108    1
   103   112   111    1
   104   113   111    1
   105   114   111    1
   106   115   114    1
   107   116   114    1
   108   117   114    1
   109   118   100    1
   110   119   101    1
   111   120   103    1
   112   121   104    1
   113   122    39    1
   114   123    39    1
   115   124   102    1
   116    13    15    1
   117    14    40    1
   118    15    41    1
   119    20    21   ar
   120    22    42    1
   121    39    41    1
   122    47    81    2
   123    49    82    1
   124    55    57    1
   125    56    81    1
   126    57    82    1
   127    62    63   ar
   128    64    83    1
   129    88   122    2
   130    90   123    1
   131    96    98    1
   132    97   122    1
   133    98   123    1
   134   103   104   ar
   135   105   124    1
@<TRIPOS>SUBSTRUCTURE
     1 RES1        1 GROUP             0 ****  ****    0  
@<TRIPOS>CRYSIN
   24.0020   24.0020   15.1852   90.0000   90.0000  120.0000   233     1
