@<TRIPOS>MOLECULE
ZIJZAW
   122   125     6     0     0
SMALL
USER_CHARGES
****
Generated from the CSD

@<TRIPOS>ATOM
     1 Fe1      7.6454  11.0032   4.1479   Fe        1 RES1   2.0000
     2 O1       6.7400  15.0433   8.1117   O.2       1 RES1   0.0000
     3 O2       4.8441  14.2064   7.2645   O.3       1 RES1   0.0000
     4 O3      10.1173  10.5974   9.1565   O.2       1 RES1   0.0000
     5 O4       8.3213   9.2808   9.2932   O.3       1 RES1   0.0000
     6 O5       8.6101  13.0843   8.6863   O.3       1 RES1   0.0000
     7 H1       8.3245  13.8719   8.7452   H         1 RES1   0.0000
     8 O6       6.6200  11.9892   9.1504   O.3       1 RES1   0.0000
     9 H2       6.9882  11.7597   9.8704   H         1 RES1   0.0000
    10 O7       6.7707   9.9816   2.9650   O.3       1 RES1   0.0000
    11 N1       6.7693  12.8941   3.8480   N.ar      1 RES1   0.0000
    12 N2       9.1454   9.7192   4.8470   N.ar      1 RES1   0.0000
    13 N3       8.7944  12.2947   5.5120   N.3       1 RES1   0.0000
    14 N4       9.1254  11.6811   2.8318   N.ar      1 RES1   0.0000
    15 N5       6.4356  10.6773   5.9482   N.3       1 RES1   0.0000
    16 C1       6.8283  12.9039   7.0065   C.3       1 RES1   0.0000
    17 C2       7.8639  13.3827   5.9457   C.3       1 RES1   0.0000
    18 H3       8.3971  14.1390   6.3234   H         1 RES1   0.0000
    19 C3       9.3405  11.3955   6.5914   C.3       1 RES1   0.0000
    20 H4      10.0853  11.8670   7.0624   H         1 RES1   0.0000
    21 C4       8.2685  10.9730   7.6319   C.3       1 RES1   0.0000
    22 C5       7.1767  10.0487   7.0758   C.3       1 RES1   0.0000
    23 H5       7.5916   9.2068   6.7628   H         1 RES1   0.0000
    24 H6       6.5399   9.8256   7.7998   H         1 RES1   0.0000
    25 C6       5.7924  11.9150   6.4621   C.3       1 RES1   0.0000
    26 H7       5.1561  11.6775   7.1823   H         1 RES1   0.0000
    27 H8       5.2815  12.3465   5.7325   H         1 RES1   0.0000
    28 C7       7.5998  12.2600   8.1903   C.3       1 RES1   0.0000
    29 C8       6.1438  14.1696   7.5358   C.2       1 RES1   0.0000
    30 C9       4.1563  15.4253   7.6673   C.3       1 RES1   0.0000
    31 H9       4.5282  16.1873   7.1773   H         1 RES1   0.0000
    32 H10      4.2778  15.5662   8.6304   H         1 RES1   0.0000
    33 H11      3.2009  15.3424   7.4669   H         1 RES1   0.0000
    34 C10      9.0231  10.2663   8.7774   C.2       1 RES1   0.0000
    35 C11      8.9381   8.5729  10.4166   C.3       1 RES1   0.0000
    36 H12      9.8413   8.2843  10.1651   H         1 RES1   0.0000
    37 H13      8.3969   7.7888  10.6444   H         1 RES1   0.0000
    38 H14      8.9896   9.1703  11.1904   H         1 RES1   0.0000
    39 C12      7.1152  13.8636   4.7213   C.ar      1 RES1   0.0000
    40 C13      6.7174  15.1727   4.5579   C.ar      1 RES1   0.0000
    41 H15      6.9818  15.8425   5.1766   H         1 RES1   0.0000
    42 C14      5.9163  15.4913   3.4611   C.ar      1 RES1   0.0000
    43 H16      5.6185  16.3836   3.3273   H         1 RES1   0.0000
    44 C15      5.5611  14.5000   2.5743   C.ar      1 RES1   0.0000
    45 H17      5.0111  14.7007   1.8259   H         1 RES1   0.0000
    46 C16      6.0118  13.2126   2.7822   C.ar      1 RES1   0.0000
    47 H18      5.7812  12.5338   2.1572   H         1 RES1   0.0000
    48 C17      9.8993  10.1768   5.8780   C.ar      1 RES1   0.0000
    49 C18     11.0743   9.5539   6.2417   C.ar      1 RES1   0.0000
    50 H19     11.5966   9.8895   6.9609   H         1 RES1   0.0000
    51 C19     11.4798   8.4279   5.5369   C.ar      1 RES1   0.0000
    52 H20     12.2851   7.9806   5.7725   H         1 RES1   0.0000
    53 C20     10.7074   7.9598   4.4885   C.ar      1 RES1   0.0000
    54 H21     10.9725   7.1905   3.9964   H         1 RES1   0.0000
    55 C21      9.5446   8.6298   4.1712   C.ar      1 RES1   0.0000
    56 H22      9.0102   8.3117   3.4538   H         1 RES1   0.0000
    57 C22      9.9490  12.9222   4.7751   C.3       1 RES1   0.0000
    58 H23     10.7930  12.6548   5.2198   H         1 RES1   0.0000
    59 H24      9.8718  13.9061   4.8437   H         1 RES1   0.0000
    60 C23     10.0296  12.5422   3.3145   C.ar      1 RES1   0.0000
    61 C24     11.0157  13.0717   2.5099   C.ar      1 RES1   0.0000
    62 H25     11.6542  13.6800   2.8629   H         1 RES1   0.0000
    63 C25     11.0551  12.6982   1.1733   C.ar      1 RES1   0.0000
    64 H26     11.7225  13.0567   0.5992   H         1 RES1   0.0000
    65 C26     10.1321  11.8097   0.6794   C.ar      1 RES1   0.0000
    66 H27     10.1513  11.5450  -0.2330   H         1 RES1   0.0000
    67 C27      9.1800  11.3146   1.5350   C.ar      1 RES1   0.0000
    68 H28      8.5407  10.6956   1.2034   H         1 RES1   0.0000
    69 C28      5.3411   9.7345   5.5611   C.3       1 RES1   0.0000
    70 H29      4.7928  10.1407   4.8587   H         1 RES1   0.0000
    71 H30      4.7813   9.5447   6.3434   H         1 RES1   0.0000
    72 H31      5.7324   8.8985   5.2282   H         1 RES1   0.0000
    73 C29      5.7617   9.1550   2.4157   C.3       1 RES1   0.0000
    74 H32      4.8694   9.5265   2.6349   H         1 RES1   0.0000
    75 H33      5.8232   8.2478   2.8063   H         1 RES1   0.0000
    76 C30      5.9247   9.0773   0.9251   C.3       1 RES1   0.0000
    77 F1       5.8762  10.2873   0.3758   F         1 RES1   0.0000
    78 F2       7.1037   8.5597   0.5866   F         1 RES1   0.0000
    79 F3       4.9864   8.3414   0.3539   F         1 RES1   0.0000
    80 S1       6.4950   5.7369   5.0116   S.o2      2 RES2   0.0000
    81 O8       6.1642   4.4360   4.5163   O.2       2 RES2   0.0000
    82 O9       5.4444   6.4297   5.7007   O.2       2 RES2   0.0000
    83 O10      7.2317   6.5553   4.0780   O.3       2 RES2  -1.0000
    84 C31      7.7155   5.4284   6.3309   C.3       2 RES2   0.0000
    85 F4       8.7494   4.7509   5.8735   F         2 RES2   0.0000
    86 F5       7.1729   4.7167   7.3176   F         2 RES2   0.0000
    87 F6       8.1599   6.5692   6.8522   F         2 RES2   0.0000
    88 S2       7.1236  10.8141  13.0611   S.o2      3 RES3   0.0000
    89 O11      7.6555   9.5370  13.4428   O.3       3 RES3  -1.0000
    90 O12      6.9591  10.9819  11.6534   O.2       3 RES3   0.0000
    91 O13      6.0402  11.2907  13.8432   O.2       3 RES3   0.0000
    92 C32      8.4851  11.9634  13.4940   C.3       3 RES3   0.0000
    93 F7       8.8127  11.8389  14.7832   F         3 RES3   0.0000
    94 F8       8.1202  13.1982  13.2477   F         3 RES3   0.0000
    95 F9       9.5641  11.6834  12.7467   F         3 RES3   0.0000
    96 C33      2.0117   6.4256   3.7634   C.3       4 RES4   0.0000
    97 F10      2.8767   6.9668   2.8995   F         4 RES4   0.0000
    98 F11      0.7660   6.6373   3.2624   F         4 RES4   0.0000
    99 F12      2.1514   5.0829   3.7285   F         4 RES4   0.0000
   100 O14      1.2079   6.4397   5.9617   O.3       4 RES4   0.0000
   101 H34      1.4456   5.6698   6.2002   H         4 RES4   0.0000
   102 C34      2.1749   6.9830   5.1183   C.3       4 RES4   0.0000
   103 H35      3.0781   6.7704   5.4629   H         4 RES4   0.0000
   104 H36      2.0778   7.9669   5.0900   H         4 RES4   0.0000
   105 C35      3.5792   3.4930   8.6204   C.3       5 RES5   0.0000
   106 F13      3.4790   2.1823   8.4498   F         5 RES5   0.0000
   107 F14      2.6944   3.8933   9.4851   F         5 RES5   0.0000
   108 F15      4.7904   3.6843   9.1600   F         5 RES5   0.0000
   109 O15      2.2331   3.9940   6.7231   O.3       5 RES5   0.0000
   110 H37      2.3006   3.3498   6.1886   H         5 RES5   0.0000
   111 C36      3.4714   4.2246   7.3354   C.3       5 RES5   0.0000
   112 H38      3.5807   5.1948   7.5002   H         5 RES5   0.0000
   113 H39      4.1967   3.9321   6.7295   H         5 RES5   0.0000
   114 C37     -1.2185   6.2422   8.7487   C.3       6 RES6   0.0000
   115 F16     -1.4550   5.7579   7.5263   F         6 RES6   0.0000
   116 F17     -1.2835   7.5831   8.6625   F         6 RES6   0.0000
   117 F18     -2.2440   5.8577   9.5206   F         6 RES6   0.0000
   118 O16      0.3624   6.2947  10.5414   O.3       6 RES6   0.0000
   119 H40     -0.1133   5.8958  11.1055   H         6 RES6   0.0000
   120 C38      0.0943   5.7876   9.2596   C.3       6 RES6   0.0000
   121 H41      0.1084   4.7975   9.2912   H         6 RES6   0.0000
   122 H42      0.8062   6.0808   8.6371   H         6 RES6   0.0000
@<TRIPOS>BOND
     1     1    10    1
     2     2    29    2
     3     3    29    1
     4     4    34    2
     5     5    34    1
     6     6     7    1
     7     8     9    1
     8    10    73    1
     9    11     1    1
    10    12     1    1
    11    13     1    1
    12    14     1    1
    13    15     1    1
    14    16    17    1
    15    17    13    1
    16    18    17    1
    17    19    13    1
    18    20    19    1
    19    21    19    1
    20    22    15    1
    21    23    22    1
    22    24    22    1
    23    25    15    1
    24    26    25    1
    25    27    25    1
    26    28     6    1
    27    29    16    1
    28    30     3    1
    29    31    30    1
    30    32    30    1
    31    33    30    1
    32    34    21    1
    33    35     5    1
    34    36    35    1
    35    37    35    1
    36    38    35    1
    37    39    11   ar
    38    40    39   ar
    39    41    40    1
    40    42    40   ar
    41    43    42    1
    42    44    42   ar
    43    45    44    1
    44    46    11   ar
    45    47    46    1
    46    48    12   ar
    47    49    48   ar
    48    50    49    1
    49    51    49   ar
    50    52    51    1
    51    53    51   ar
    52    54    53    1
    53    55    12   ar
    54    56    55    1
    55    57    13    1
    56    58    57    1
    57    59    57    1
    58    60    14   ar
    59    61    60   ar
    60    62    61    1
    61    63    61   ar
    62    64    63    1
    63    65    63   ar
    64    66    65    1
    65    67    14   ar
    66    68    67    1
    67    69    15    1
    68    70    69    1
    69    71    69    1
    70    72    69    1
    71    73    74    1
    72    75    73    1
    73    76    73    1
    74    77    76    1
    75    78    76    1
    76    79    76    1
    77     8    28    1
    78    16    25    1
    79    16    28    1
    80    17    39    1
    81    19    48    1
    82    21    22    1
    83    21    28    1
    84    44    46   ar
    85    53    55   ar
    86    57    60    1
    87    65    67   ar
    88    80    81    2
    89    82    80    2
    90    83    80    1
    91    84    80    1
    92    85    84    1
    93    86    84    1
    94    87    84    1
    95    88    89    1
    96    90    88    2
    97    91    88    2
    98    92    88    1
    99    93    92    1
   100    94    92    1
   101    95    92    1
   102    96    97    1
   103    98    96    1
   104    99    96    1
   105   100   101    1
   106   102    96    1
   107   103   102    1
   108   104   102    1
   109   100   102    1
   110   105   106    1
   111   107   105    1
   112   108   105    1
   113   109   110    1
   114   111   105    1
   115   112   111    1
   116   113   111    1
   117   109   111    1
   118   114   115    1
   119   116   114    1
   120   117   114    1
   121   118   119    1
   122   120   114    1
   123   121   120    1
   124   122   120    1
   125   118   120    1
@<TRIPOS>SUBSTRUCTURE
     1 RES1        1 GROUP             0 ****  ****    0  
     2 RES2       80 GROUP             0 ****  ****    0  
     3 RES3       88 GROUP             0 ****  ****    0  
     4 RES4       96 GROUP             0 ****  ****    0  
     5 RES5      105 GROUP             0 ****  ****    0  
     6 RES6      114 GROUP             0 ****  ****    0  
@<TRIPOS>CRYSIN
   13.0752   22.8343   17.0334   90.0000  102.2596   90.0000   231     1
