@<TRIPOS>MOLECULE
ZIMQEV
   101   112     3     0     0
SMALL
USER_CHARGES
****
Generated from the CSD

@<TRIPOS>ATOM
     1 Fe1      2.9880  11.5481   9.0304   Fe        1 RES1   2.0000
     2 N1       4.8480  11.2118   8.4778   N.2       1 RES1   0.0000
     3 N2       1.2108  11.2385   9.8211   N.2       1 RES1   0.0000
     4 N3       2.3972  11.0817   7.2199   N.2       1 RES1   0.0000
     5 N4       5.3062   9.9675   8.8506   N.pl3     1 RES1   0.0000
     6 N5       1.2094  10.1407  10.6575   N.pl3     1 RES1   0.0000
     7 N6       2.7147  13.2867   8.3196   N.ar      1 RES1   0.0000
     8 N7       3.2766   9.8421   9.8220   N.ar      1 RES1   0.0000
     9 N8       2.0906  12.1913   6.4533   N.pl3     1 RES1   0.0000
    10 N9       3.4623  13.9886  10.3318   N.pl3     1 RES1   0.0000
    11 C1       4.6749   7.9478  10.1756   C.ar      1 RES1   0.0000
    12 H1       5.4778   7.4734   9.9945   H         1 RES1   0.0000
    13 C2       3.9696  14.6872  11.3883   C.2       1 RES1   0.0000
    14 H2       4.0408  15.6321  11.4551   H         1 RES1   0.0000
    15 N10      3.5251  12.6273  10.5737   N.2       1 RES1   0.0000
    16 C3       2.9443  14.3735   9.0791   C.ar      1 RES1   0.0000
    17 C4       2.2354  10.0464   6.4189   C.2       1 RES1   0.0000
    18 H3       2.3807   9.1437   6.6768   H         1 RES1   0.0000
    19 C5      -2.1745  11.3043  11.3090   C.ar      1 RES1   0.0000
    20 C6       4.4316   9.1920   9.6366   C.ar      1 RES1   0.0000
    21 C7       2.2618  13.4395   7.0665   C.ar      1 RES1   0.0000
    22 C8       4.0444  12.5080  11.7830   C.2       1 RES1   0.0000
    23 H4       4.1883  11.6788  12.2236   H         1 RES1   0.0000
    24 C9       2.7059  15.6531   8.6375   C.ar      1 RES1   0.0000
    25 H5       2.8573  16.4092   9.1925   H         1 RES1   0.0000
    26 C10      6.5658   9.7535   8.3826   C.2       1 RES1   0.0000
    27 H6       7.0899   8.9724   8.5160   H         1 RES1   0.0000
    28 C11      0.0136  10.0048  11.2791   C.2       1 RES1   0.0000
    29 H7      -0.2238   9.3225  11.8960   H         1 RES1   0.0000
    30 C12      1.7472  11.8205   5.1807   C.2       1 RES1   0.0000
    31 H8       1.5057  12.4025   4.4697   H         1 RES1   0.0000
    32 C13      8.1955  11.1701   6.9662   C.ar      1 RES1   0.0000
    33 C14      0.6961   9.1896   1.7479   C.ar      1 RES1   0.0000
    34 H9       0.3092   9.5334   0.9511   H         1 RES1   0.0000
    35 C15      2.3382   9.3121  10.6108   C.ar      1 RES1   0.0000
    36 C16      4.3597  13.7723  12.3401   C.2       1 RES1   0.0000
    37 C17     -3.1224  11.8785  10.4642   C.ar      1 RES1   0.0000
    38 H10     -2.8767  12.1417   9.5851   H         1 RES1   0.0000
    39 C18     -2.5568  10.9488  12.6120   C.ar      1 RES1   0.0000
    40 H11     -1.9154  10.5750  13.2049   H         1 RES1   0.0000
    41 C19      1.5180   9.5548   3.9837   C.ar      1 RES1   0.0000
    42 C20      3.6828   7.4206  11.0008   C.ar      1 RES1   0.0000
    43 H12      3.8201   6.5695  11.4001   H         1 RES1   0.0000
    44 C21      6.9412  10.8768   7.6801   C.2       1 RES1   0.0000
    45 C22     -0.0063  11.7572   9.9277   C.2       1 RES1   0.0000
    46 H13     -0.3095  12.5166   9.4440   H         1 RES1   0.0000
    47 C23      2.2291  15.7849   7.3321   C.ar      1 RES1   0.0000
    48 H14      2.0526  16.6536   6.9904   H         1 RES1   0.0000
    49 C24      1.8044   8.1937   4.0677   C.ar      1 RES1   0.0000
    50 H15      2.1860   7.8448   4.8648   H         1 RES1   0.0000
    51 C25     -0.7945  11.0340  10.8547   C.2       1 RES1   0.0000
    52 C26     -4.8005  11.6910  12.1844   C.ar      1 RES1   0.0000
    53 H16     -5.6961  11.8110  12.4762   H         1 RES1   0.0000
    54 C27      6.4536  15.1803  15.1551   C.ar      1 RES1   0.0000
    55 H17      7.0203  15.9234  15.3278   H         1 RES1   0.0000
    56 C28      4.9910  13.9818  13.6623   C.ar      1 RES1   0.0000
    57 C29      0.9878   7.8397   1.8388   C.ar      1 RES1   0.0000
    58 H18      0.8086   7.2610   1.1070   H         1 RES1   0.0000
    59 C30      9.3697  10.4707   7.2275   C.ar      1 RES1   0.0000
    60 H19      9.3655   9.7639   7.8621   H         1 RES1   0.0000
    61 C31      2.0082  14.6843   6.5208   C.ar      1 RES1   0.0000
    62 H20      1.6951  14.7805   5.6289   H         1 RES1   0.0000
    63 C32      5.8287  11.7412   7.7685   C.2       1 RES1   0.0000
    64 H21      5.7901  12.6009   7.3662   H         1 RES1   0.0000
    65 C33      8.2256  12.2151   6.0296   C.ar      1 RES1   0.0000
    66 H22      7.4321  12.7003   5.8386   H         1 RES1   0.0000
    67 C34      0.9611  10.0487   2.8076   C.ar      1 RES1   0.0000
    68 H23      0.7634  10.9745   2.7289   H         1 RES1   0.0000
    69 C35     -4.4342  12.0676  10.9074   C.ar      1 RES1   0.0000
    70 H24     -5.0773  12.4573  10.3270   H         1 RES1   0.0000
    71 C36      1.8172  10.4491   5.1240   C.2       1 RES1   0.0000
    72 C37     10.5640  11.8348   5.6538   C.ar      1 RES1   0.0000
    73 H25     11.3731  12.0627   5.2100   H         1 RES1   0.0000
    74 C38      5.4446  13.1438  15.8768   C.ar      1 RES1   0.0000
    75 H26      5.3066  12.4851  16.5474   H         1 RES1   0.0000
    76 C39      5.8247  15.0708  13.9194   C.ar      1 RES1   0.0000
    77 H27      5.9615  15.7346  13.2536   H         1 RES1   0.0000
    78 C40     10.5488  10.7979   6.5675   C.ar      1 RES1   0.0000
    79 H28     11.3440  10.3088   6.7445   H         1 RES1   0.0000
    80 C41      6.2679  14.2251  16.1335   C.ar      1 RES1   0.0000
    81 H29      6.7008  14.3093  16.9748   H         1 RES1   0.0000
    82 C42      2.5044   8.0989  11.2557   C.ar      1 RES1   0.0000
    83 H30      1.8438   7.7502  11.8426   H         1 RES1   0.0000
    84 C43      4.8206  13.0163  14.6525   C.ar      1 RES1   0.0000
    85 H31      4.2696  12.2615  14.4827   H         1 RES1   0.0000
    86 C44      1.5419   7.3392   3.0057   C.ar      1 RES1   0.0000
    87 H32      1.7411   6.4134   3.0788   H         1 RES1   0.0000
    88 C45      9.4031  12.5438   5.3829   C.ar      1 RES1   0.0000
    89 H33      9.4173  13.2551   4.7531   H         1 RES1   0.0000
    90 C46     -3.8599  11.1378  13.0418   C.ar      1 RES1   0.0000
    91 H34     -4.1108  10.8885  13.9236   H         1 RES1   0.0000
    92 Cl1      0.4332   7.3226   7.9658   Cl        2 RES2   0.0000
    93 O1       1.8753   7.3220   8.0629   O.3       2 RES2  -1.0000
    94 O2      -0.1043   7.9884   9.1182   O.2       2 RES2   0.0000
    95 O3       0.0265   7.9988   6.7712   O.2       2 RES2   0.0000
    96 O4      -0.0453   5.9632   7.9403   O.2       2 RES2   0.0000
    97 Cl2      7.9248   6.0188   7.8005   Cl        3 RES3   0.0000
    98 O5       7.6854   5.4574   6.4946   O.2       3 RES3   0.0000
    99 O6       8.5073   7.3219   7.6732   O.2       3 RES3   0.0000
   100 O7       8.8494   5.1749   8.5285   O.3       3 RES3  -1.0000
   101 O8       6.7034   6.1139   8.5119   O.2       3 RES3   0.0000
@<TRIPOS>BOND
     1     1     2    1
     2     2     5    1
     3     3     1    1
     4     4     1    1
     5     5    20    1
     6     6     3    1
     7     7     1    1
     8     8     1    1
     9     9     4    1
    10    10    13    1
    11    11    12    1
    12    13    14    1
    13    15     1    1
    14    16     7   ar
    15    17     4    2
    16    18    17    1
    17    19    37   ar
    18    20     8   ar
    19    21     7   ar
    20    22    15    2
    21    23    22    1
    22    24    16   ar
    23    25    24    1
    24    26     5    1
    25    27    26    1
    26    28     6    1
    27    29    28    1
    28    30     9    1
    29    31    30    1
    30    32    44    1
    31    33    34    1
    32    35     6    1
    33    36    13    2
    34    37    38    1
    35    39    19   ar
    36    40    39    1
    37    41    49   ar
    38    42    11   ar
    39    43    42    1
    40    44    26    2
    41    45     3    2
    42    46    45    1
    43    47    24   ar
    44    48    47    1
    45    49    50    1
    46    51    19    1
    47    52    53    1
    48    54    55    1
    49    56    36    1
    50    57    33   ar
    51    58    57    1
    52    59    32   ar
    53    60    59    1
    54    61    21   ar
    55    62    61    1
    56    63     2    2
    57    64    63    1
    58    65    32   ar
    59    66    65    1
    60    67    33   ar
    61    68    67    1
    62    69    37   ar
    63    70    69    1
    64    71    17    1
    65    72    73    1
    66    74    75    1
    67    76    54   ar
    68    77    76    1
    69    78    59   ar
    70    79    78    1
    71    80    54   ar
    72    81    80    1
    73    82    35   ar
    74    83    82    1
    75    84    56   ar
    76    85    84    1
    77    86    49   ar
    78    87    86    1
    79    88    65   ar
    80    89    88    1
    81    90    39   ar
    82    91    90    1
    83     8    35   ar
    84     9    21    1
    85    10    15    1
    86    10    16    1
    87    11    20   ar
    88    22    36    1
    89    28    51    2
    90    30    71    2
    91    41    67   ar
    92    41    71    1
    93    42    82   ar
    94    44    63    1
    95    45    51    1
    96    47    61   ar
    97    52    69   ar
    98    52    90   ar
    99    56    76   ar
   100    57    86   ar
   101    72    78   ar
   102    72    88   ar
   103    74    80   ar
   104    74    84   ar
   105    92    93    1
   106    94    92    2
   107    95    92    2
   108    96    92    2
   109    97    98    2
   110    99    97    2
   111   100    97    1
   112   101    97    2
@<TRIPOS>SUBSTRUCTURE
     1 RES1        1 GROUP             0 ****  ****    0  
     2 RES2       92 GROUP             0 ****  ****    0  
     3 RES3       97 GROUP             0 ****  ****    0  
@<TRIPOS>CRYSIN
   12.3280   15.2355   22.3379   90.0000   90.3360   90.0000    14     1
