@<TRIPOS>MOLECULE
ZIRZIJ
    89    95     2     0     0
SMALL
USER_CHARGES
****
Generated from the CSD

@<TRIPOS>ATOM
     1 Fe1      4.7692   3.2024   6.4252   Fe        1 RES1   0.0000
     2 F1       2.4576   3.9810   8.9928   F         1 RES1   0.0000
     3 F2       1.3228   5.3572   7.7914   F         1 RES1   0.0000
     4 F3       3.3490   5.8148   8.3117   F         1 RES1   0.0000
     5 F4       2.1951   5.5296   3.9740   F         1 RES1   0.0000
     6 F5       4.1468   4.8924   3.3371   F         1 RES1   0.0000
     7 F6       2.6628   3.4523   3.9077   F         1 RES1   0.0000
     8 O1       2.1374   1.7779   6.7195   O.2       1 RES1  -1.0000
     9 O2       5.3983   1.0459   8.3057   O.2       1 RES1   0.0000
    10 O3       5.8138   2.0651   3.9308   O.2       1 RES1   0.0000
    11 O4       6.9675   5.0215   7.2931   O.2       1 RES1   0.0000
    12 C1       2.9386   2.6782   6.5336   C.2       1 RES1   0.0000
    13 C2       3.0163   4.0965   6.7165   C.3       1 RES1   0.0000
    14 C3       3.6922   4.7394   5.6356   C.3       1 RES1   0.0000
    15 C4       2.5505   4.8078   7.9360   C.3       1 RES1   0.0000
    16 C5       3.2034   4.6462   4.2493   C.3       1 RES1   0.0000
    17 C6       5.1758   1.8979   7.5844   C.1       1 RES1   0.0000
    18 C7       5.4387   2.5248   4.9022   C.1       1 RES1   0.0000
    19 C8       6.1424   4.3419   6.9716   C.1       1 RES1   0.0000
    20 H1       4.0371   5.5984   5.8556   H         1 RES1   0.0000
    21 P1      10.1016   3.8166   1.8414   P.3       2 RES2   0.0000
    22 P2       9.8628   0.8920   2.3205   P.3       2 RES2   0.0000
    23 N1       9.5062   2.3484   1.8122   N.1       2 RES2   1.0000
    24 C9      11.4063   4.0445   0.6268   C.ar      2 RES2   0.0000
    25 C10     12.4384   4.9303   0.8016   C.ar      2 RES2   0.0000
    26 C11     13.4209   5.0513  -0.1607   C.ar      2 RES2   0.0000
    27 C12     13.3526   4.3037  -1.3059   C.ar      2 RES2   0.0000
    28 C13     12.3029   3.4141  -1.5068   C.ar      2 RES2   0.0000
    29 C14     11.3320   3.2906  -0.5324   C.ar      2 RES2   0.0000
    30 C15      8.8013   4.9280   1.4054   C.ar      2 RES2   0.0000
    31 C16      7.5307   4.5017   1.2878   C.ar      2 RES2   0.0000
    32 C17      6.4946   5.3470   0.9644   C.ar      2 RES2   0.0000
    33 C18      6.7643   6.7044   0.7665   C.ar      2 RES2   0.0000
    34 C19      8.0471   7.1283   0.9172   C.ar      2 RES2   0.0000
    35 C20      9.0525   6.2955   1.2185   C.ar      2 RES2   0.0000
    36 C21     10.7054   4.3245   3.4366   C.ar      2 RES2   0.0000
    37 C22     11.9380   3.9230   3.8686   C.ar      2 RES2   0.0000
    38 C23     12.3494   4.1699   5.1936   C.ar      2 RES2   0.0000
    39 C24     11.4854   4.8218   6.0474   C.ar      2 RES2   0.0000
    40 C25     10.2643   5.2316   5.6054   C.ar      2 RES2   0.0000
    41 C26      9.8776   4.9758   4.3296   C.ar      2 RES2   0.0000
    42 C27     11.5862   0.6465   2.6731   C.ar      2 RES2   0.0000
    43 C28     12.5112   0.7732   1.6324   C.ar      2 RES2   0.0000
    44 C29     13.8666   0.7127   1.9087   C.ar      2 RES2   0.0000
    45 C30     14.3335   0.5751   3.1543   C.ar      2 RES2   0.0000
    46 C31     13.4527   0.4174   4.1790   C.ar      2 RES2   0.0000
    47 C32     12.0838   0.4611   3.9519   C.ar      2 RES2   0.0000
    48 C33      9.3961  -0.2632   1.0287   C.ar      2 RES2   0.0000
    49 C34      9.8793  -1.5669   1.0558   C.ar      2 RES2   0.0000
    50 C35      9.4732  -2.4495   0.0603   C.ar      2 RES2   0.0000
    51 C36      8.6257  -2.0421  -0.9342   C.ar      2 RES2   0.0000
    52 C37      8.1374  -0.7415  -0.9614   C.ar      2 RES2   0.0000
    53 C38      8.5417   0.1270   0.0342   C.ar      2 RES2   0.0000
    54 C39      8.9621   0.4938   3.8354   C.ar      2 RES2   0.0000
    55 C40      8.3392  -0.7368   3.9881   C.ar      2 RES2   0.0000
    56 C41      7.7235  -1.0304   5.2036   C.ar      2 RES2   0.0000
    57 C42      7.7362  -0.1385   6.2283   C.ar      2 RES2   0.0000
    58 C43      8.3465   1.0795   6.0685   C.ar      2 RES2   0.0000
    59 C44      8.9594   1.3973   4.8721   C.ar      2 RES2   0.0000
    60 H2      12.4778   5.4634   1.5902   H         2 RES2   0.0000
    61 H3      14.1420   5.6534  -0.0251   H         2 RES2   0.0000
    62 H4      14.0281   4.3863  -1.9639   H         2 RES2   0.0000
    63 H5      12.2531   2.8935  -2.3024   H         2 RES2   0.0000
    64 H6      10.6088   2.6815  -0.6499   H         2 RES2   0.0000
    65 H7       7.3496   3.5812   1.4295   H         2 RES2   0.0000
    66 H8       5.6110   5.0156   0.8850   H         2 RES2   0.0000
    67 H9       6.0776   7.3160   0.5354   H         2 RES2   0.0000
    68 H10      8.2471   8.0526   0.8016   H         2 RES2   0.0000
    69 H11      9.9424   6.6306   1.3099   H         2 RES2   0.0000
    70 H12     12.5170   3.4639   3.2678   H         2 RES2   0.0000
    71 H13     13.2084   3.8982   5.4859   H         2 RES2   0.0000
    72 H14     11.7407   4.9803   6.9445   H         2 RES2   0.0000
    73 H15      9.6822   5.7047   6.1921   H         2 RES2   0.0000
    74 H16      9.0114   5.2436   4.0484   H         2 RES2   0.0000
    75 H17     12.2063   0.9028   0.7394   H         2 RES2   0.0000
    76 H18     14.4793   0.7724   1.1824   H         2 RES2   0.0000
    77 H19     15.2663   0.5898   3.3271   H         2 RES2   0.0000
    78 H20     13.7725   0.2690   5.0650   H         2 RES2   0.0000
    79 H21     11.4777   0.3689   4.6772   H         2 RES2   0.0000
    80 H22     10.4751  -1.8508   1.7419   H         2 RES2   0.0000
    81 H23      9.7936  -3.3460   0.0673   H         2 RES2   0.0000
    82 H24      8.3829  -2.6517  -1.6204   H         2 RES2   0.0000
    83 H25      7.5399  -0.4583  -1.6445   H         2 RES2   0.0000
    84 H26      8.2182   1.0220   0.0271   H         2 RES2   0.0000
    85 H27      8.3373  -1.3682   3.2799   H         2 RES2   0.0000
    86 H28      7.2837  -1.8633   5.3222   H         2 RES2   0.0000
    87 H29      7.3271  -0.3487   7.0600   H         2 RES2   0.0000
    88 H30      8.3575   1.7184   6.7858   H         2 RES2   0.0000
    89 H31      9.3827   2.2477   4.7586   H         2 RES2   0.0000
@<TRIPOS>BOND
     1     1    12   un
     2     2    15    1
     3     3    15    1
     4     4    15    1
     5     5    16    1
     6     6    16    1
     7     7    16    1
     8     8    12    2
     9     9    17    3
    10    10    18    3
    11    11    19    3
    12    12    13   un
    13    13     1   un
    14    14     1   un
    15    15    13    1
    16    16    14    1
    17    17     1    1
    18    18     1    1
    19    19     1    1
    20    20    14    1
    21    13    14   un
    22    21    23    2
    23    22    23    2
    24    24    21    1
    25    25    24   ar
    26    26    25   ar
    27    27    26   ar
    28    28    27   ar
    29    29    24   ar
    30    30    21    1
    31    31    30   ar
    32    32    31   ar
    33    33    32   ar
    34    34    33   ar
    35    35    30   ar
    36    36    21    1
    37    37    36   ar
    38    38    37   ar
    39    39    38   ar
    40    40    39   ar
    41    41    36   ar
    42    42    22    1
    43    43    42   ar
    44    44    43   ar
    45    45    44   ar
    46    46    45   ar
    47    47    42   ar
    48    48    22    1
    49    49    48   ar
    50    50    49   ar
    51    51    50   ar
    52    52    51   ar
    53    53    48   ar
    54    54    22    1
    55    55    54   ar
    56    56    55   ar
    57    57    56   ar
    58    58    57   ar
    59    59    54   ar
    60    60    25    1
    61    61    26    1
    62    62    27    1
    63    63    28    1
    64    64    29    1
    65    65    31    1
    66    66    32    1
    67    67    33    1
    68    68    34    1
    69    69    35    1
    70    70    37    1
    71    71    38    1
    72    72    39    1
    73    73    40    1
    74    74    41    1
    75    75    43    1
    76    76    44    1
    77    77    45    1
    78    78    46    1
    79    79    47    1
    80    80    49    1
    81    81    50    1
    82    82    51    1
    83    83    52    1
    84    84    53    1
    85    85    55    1
    86    86    56    1
    87    87    57    1
    88    88    58    1
    89    89    59    1
    90    28    29   ar
    91    34    35   ar
    92    40    41   ar
    93    46    47   ar
    94    52    53   ar
    95    58    59   ar
@<TRIPOS>SUBSTRUCTURE
     1 RES1        1 GROUP             0 ****  ****    0  
     2 RES2       21 GROUP             0 ****  ****    0  
@<TRIPOS>CRYSIN
   13.0290   16.8120   10.3410  103.6100   96.6400   68.2900     2     1
