@<TRIPOS>MOLECULE
ZIWPAA01
   128   134     4     0     0
SMALL
USER_CHARGES
****
Generated from the CSD

@<TRIPOS>ATOM
     1 Fe1      5.6032   9.9964   4.2069   Fe        1 RES1   1.0000
     2 F1       2.3683   7.0473   9.3585   F         1 RES1   0.0000
     3 F2       8.5906   4.1114   2.6997   F         1 RES1   0.0000
     4 O1       5.9053   9.3853   5.9331   O.3       1 RES1   0.0000
     5 O2       5.2211   8.2934   3.5295   O.3       1 RES1   0.0000
     6 N1       3.7258  10.1392   4.4361   N.2       1 RES1   0.0000
     7 N2       5.2039  10.7316   2.3597   N.3       1 RES1   0.0000
     8 H1       5.2946  11.7258   2.4175   H         1 RES1   0.0000
     9 N3       7.4769   9.8384   3.9591   N.2       1 RES1   0.0000
    10 N4       6.0660  11.8477   4.8675   N.3       1 RES1   0.0000
    11 C1       3.0274  10.8040   3.3358   C.3       1 RES1   0.0000
    12 H2       3.0268  11.7854   3.4676   H         1 RES1   0.0000
    13 H3       2.0892  10.4917   3.2809   H         1 RES1   0.0000
    14 C2       3.7703  10.4438   2.0929   C.3       1 RES1   0.0000
    15 H4       3.6440   9.4861   1.8802   H         1 RES1   0.0000
    16 H5       3.4467  10.9837   1.3286   H         1 RES1   0.0000
    17 C3       6.0583  10.2934   1.2630   C.3       1 RES1   0.0000
    18 H6       5.9663   9.3126   1.1659   H         1 RES1   0.0000
    19 H7       6.9996  10.4828   1.5032   H         1 RES1   0.0000
    20 C4       5.7630  10.9377  -0.0640   C.3       1 RES1   0.0000
    21 H8       4.8649  10.6774  -0.3595   H         1 RES1   0.0000
    22 H9       6.4228  10.6408  -0.7240   H         1 RES1   0.0000
    23 H10      5.8069  11.9115   0.0291   H         1 RES1   0.0000
    24 C5       3.0284   9.6063   5.3702   C.2       1 RES1   0.0000
    25 H11      2.0819   9.6695   5.3285   H         1 RES1   0.0000
    26 C6       3.6329   8.9117   6.4851   C.ar      1 RES1   0.0000
    27 C7       2.7228   8.2971   7.3990   C.ar      1 RES1   0.0000
    28 H12      1.7836   8.3400   7.2606   H         1 RES1   0.0000
    29 C8       3.2473   7.6508   8.4701   C.ar      1 RES1   0.0000
    30 C9       4.5900   7.6007   8.7425   C.ar      1 RES1   0.0000
    31 H13      4.9083   7.1591   9.5197   H         1 RES1   0.0000
    32 C10      5.4565   8.1931   7.8852   C.ar      1 RES1   0.0000
    33 H14      6.3881   8.1704   8.0673   H         1 RES1   0.0000
    34 C11      4.9872   8.8412   6.7246   C.ar      1 RES1   0.0000
    35 C12      6.1369   7.3444   3.3906   C.ar      1 RES1   0.0000
    36 C13      7.4887   7.4800   3.4710   C.ar      1 RES1   0.0000
    37 C14      8.3052   6.3844   3.2389   C.ar      1 RES1   0.0000
    38 H15      9.2488   6.4769   3.3017   H         1 RES1   0.0000
    39 C15      7.7611   5.1680   2.9227   C.ar      1 RES1   0.0000
    40 C16      6.4173   5.0046   2.8258   C.ar      1 RES1   0.0000
    41 H16      6.0539   4.1575   2.5966   H         1 RES1   0.0000
    42 C17      5.5964   6.0631   3.0580   C.ar      1 RES1   0.0000
    43 H17      4.6558   5.9499   2.9973   H         1 RES1   0.0000
    44 C18      8.1345   8.7613   3.7379   C.2       1 RES1   0.0000
    45 H18      9.0842   8.7972   3.7482   H         1 RES1   0.0000
    46 C19      8.2065  11.0751   4.1510   C.3       1 RES1   0.0000
    47 H19      8.2059  11.6123   3.3188   H         1 RES1   0.0000
    48 H20      9.1434  10.8902   4.4090   H         1 RES1   0.0000
    49 C20      7.4978  11.8031   5.2422   C.3       1 RES1   0.0000
    50 H21      7.6133  11.3303   6.1039   H         1 RES1   0.0000
    51 H22      7.8574  12.7212   5.3350   H         1 RES1   0.0000
    52 C21      5.2033  12.3899   5.9258   C.3       1 RES1   0.0000
    53 H23      5.2206  11.7688   6.6964   H         1 RES1   0.0000
    54 H24      4.2730  12.4230   5.5893   H         1 RES1   0.0000
    55 C22      5.5966  13.7919   6.4175   C.3       1 RES1   0.0000
    56 H25      6.4312  13.7373   6.9285   H         1 RES1   0.0000
    57 H26      4.8859  14.1489   6.9905   H         1 RES1   0.0000
    58 H27      5.7236  14.3851   5.6476   H         1 RES1   0.0000
    59 H28      5.9161  12.3676   4.1857   H         1 RES1   0.0000
    60 O3       6.1245  13.4595   2.4932   O.2       2 RES2   0.0000
    61 C23      5.6440  14.4957   1.9996   C.2       2 RES2   0.0000
    62 H29      4.8507  14.8483   2.3852   H         2 RES2   0.0000
    63 N5       6.1561  15.1123   1.0035   N.am      2 RES2   0.0000
    64 C24      5.5908  16.3453   0.4771   C.3       2 RES2   0.0000
    65 H30      4.6710  16.4472   0.8000   H         2 RES2   0.0000
    66 H31      5.5920  16.3147  -0.5020   H         2 RES2   0.0000
    67 H32      6.1288  17.1071   0.7806   H         2 RES2   0.0000
    68 C25      7.3881  14.6499   0.4259   C.3       2 RES2   0.0000
    69 H33      8.0512  15.3702   0.4507   H         2 RES2   0.0000
    70 H34      7.2323  14.3796  -0.5028   H         2 RES2   0.0000
    71 H35      7.7203  13.8822   0.9378   H         2 RES2   0.0000
    72 O4       2.5946  14.0519   2.4054   O.2       3 RES3   0.0000
    73 C26     -0.1424  14.5515   2.8770   C.3       3 RES3   0.0000
    74 H36     -0.4591  13.9304   3.5655   H         3 RES3   0.0000
    75 H37     -0.9021  15.0598   2.5218   H         3 RES3   0.0000
    76 H38      0.5090  15.1697   3.2687   H         3 RES3   0.0000
    77 N6       0.5048  13.7789   1.7657   N.am      3 RES3   0.0000
    78 C27     -0.4474  13.1828   0.8755   C.3       3 RES3   0.0000
    79 H39      0.0256  12.6634   0.1921   H         3 RES3   0.0000
    80 H40     -0.9748  13.8872   0.4425   H         3 RES3   0.0000
    81 H41     -1.0432  12.5928   1.3811   H         3 RES3   0.0000
    82 C28      1.7320  13.7121   1.6999   C.2       3 RES3   0.0000
    83 H42      2.0418  13.2917   0.9065   H         3 RES3   0.0000
    84 C29     15.4543  12.2673   6.9969   C.ar      4 RES4   0.0000
    85 H43     16.0522  12.7823   7.5263   H         4 RES4   0.0000
    86 C30     14.6924  11.3017   7.5727   C.ar      4 RES4   0.0000
    87 H44     14.7660  11.1289   8.5048   H         4 RES4   0.0000
    88 C31     13.8047  10.5682   6.7995   C.ar      4 RES4   0.0000
    89 H45     13.2501   9.9246   7.2246   H         4 RES4   0.0000
    90 C32     13.6951  10.7409   5.4122   C.ar      4 RES4   0.0000
    91 C33     11.9400  10.6926   3.3504   C.ar      4 RES4   0.0000
    92 C34     11.3368  10.0909   2.2080   C.ar      4 RES4   0.0000
    93 H46     11.4579   9.1603   2.0637   H         4 RES4   0.0000
    94 C35     10.5755  10.8226   1.2923   C.ar      4 RES4   0.0000
    95 H47     10.2117  10.3931   0.5268   H         4 RES4   0.0000
    96 C36     10.3498  12.1726   1.5043   C.ar      4 RES4   0.0000
    97 H48      9.8487  12.6822   0.8789   H         4 RES4   0.0000
    98 C37     15.9205   7.2683   2.5334   C.ar      4 RES4   0.0000
    99 H49     16.5867   6.7196   2.1366   H         4 RES4   0.0000
   100 C38     15.5921   7.0845   3.8330   C.ar      4 RES4   0.0000
   101 H50     16.0501   6.4384   4.3568   H         4 RES4   0.0000
   102 C39     14.5652   7.8663   4.3996   C.ar      4 RES4   0.0000
   103 H51     14.3291   7.7285   5.3095   H         4 RES4   0.0000
   104 C40     13.8778   8.8430   3.6538   C.ar      4 RES4   0.0000
   105 C41     15.3647  12.4920   5.6937   C.ar      4 RES4   0.0000
   106 H52     15.8827  13.1840   5.3008   H         4 RES4   0.0000
   107 C42     14.5290  11.7344   4.8967   C.ar      4 RES4   0.0000
   108 H53     14.5198  11.8966   3.9613   H         4 RES4   0.0000
   109 C43     11.6807   8.9656   5.2258   C.ar      4 RES4   0.0000
   110 C44     11.4523   7.5896   5.1124   C.ar      4 RES4   0.0000
   111 H54     12.0307   7.0826   4.5550   H         4 RES4   0.0000
   112 C45     10.4249   6.9248   5.7686   C.ar      4 RES4   0.0000
   113 H55     10.3077   5.9906   5.6370   H         4 RES4   0.0000
   114 C46      9.5779   7.6081   6.6094   C.ar      4 RES4   0.0000
   115 H56      8.8709   7.1636   7.0631   H         4 RES4   0.0000
   116 C47      9.7864   8.9377   6.7684   C.ar      4 RES4   0.0000
   117 H57      9.2167   9.4247   7.3525   H         4 RES4   0.0000
   118 C48     10.7904   9.6063   6.1177   C.ar      4 RES4   0.0000
   119 H58     10.8916  10.5377   6.2721   H         4 RES4   0.0000
   120 C49     11.6314  12.0334   3.5094   C.ar      4 RES4   0.0000
   121 H59     11.9729  12.4814   4.2743   H         4 RES4   0.0000
   122 C50     10.8593  12.7613   2.6284   C.ar      4 RES4   0.0000
   123 H60     10.6799  13.6772   2.8034   H         4 RES4   0.0000
   124 C51     14.2926   8.9972   2.3542   C.ar      4 RES4   0.0000
   125 H61     13.8681   9.6559   1.8181   H         4 RES4   0.0000
   126 C52     15.3086   8.2302   1.7858   C.ar      4 RES4   0.0000
   127 H62     15.5716   8.3753   0.8838   H         4 RES4   0.0000
   128 B1      12.7747   9.8217   4.4197   B         4 RES4  -1.0000
@<TRIPOS>BOND
     1     1     4    1
     2     2    29    1
     3     3    39    1
     4     4    34    1
     5     5     1    1
     6     6     1    1
     7     7     1    1
     8     8     7    1
     9     9     1    1
    10    10     1    1
    11    11     6    1
    12    12    11    1
    13    13    11    1
    14    14     7    1
    15    15    14    1
    16    16    14    1
    17    17     7    1
    18    18    17    1
    19    19    17    1
    20    20    17    1
    21    21    20    1
    22    22    20    1
    23    23    20    1
    24    24     6    2
    25    25    24    1
    26    26    24    1
    27    27    26   ar
    28    28    27    1
    29    29    27   ar
    30    30    29   ar
    31    31    30    1
    32    32    30   ar
    33    33    32    1
    34    34    26   ar
    35    35     5    1
    36    36    35   ar
    37    37    36   ar
    38    38    37    1
    39    39    37   ar
    40    40    39   ar
    41    41    40    1
    42    42    35   ar
    43    43    42    1
    44    44     9    2
    45    45    44    1
    46    46     9    1
    47    47    46    1
    48    48    46    1
    49    49    10    1
    50    50    49    1
    51    51    49    1
    52    52    10    1
    53    53    52    1
    54    54    52    1
    55    55    52    1
    56    56    55    1
    57    57    55    1
    58    58    55    1
    59    59    10    1
    60    11    14    1
    61    32    34   ar
    62    36    44    1
    63    40    42   ar
    64    46    49    1
    65    60    61    2
    66    61    62    1
    67    63    61   am
    68    64    63    1
    69    65    64    1
    70    66    64    1
    71    67    64    1
    72    68    63    1
    73    69    68    1
    74    70    68    1
    75    71    68    1
    76    72    82    2
    77    73    74    1
    78    75    73    1
    79    76    73    1
    80    77    73    1
    81    78    77    1
    82    79    78    1
    83    80    78    1
    84    81    78    1
    85    82    77   am
    86    83    82    1
    87    84    85    1
    88    86    84   ar
    89    87    86    1
    90    88    86   ar
    91    89    88    1
    92    90    88   ar
    93    91    92   ar
    94    92    93    1
    95    94    92   ar
    96    95    94    1
    97    96    94   ar
    98    97    96    1
    99    98    99    1
   100   100    98   ar
   101   101   100    1
   102   102   100   ar
   103   103   102    1
   104   104   102   ar
   105   105    84   ar
   106   106   105    1
   107   107    90   ar
   108   108   107    1
   109   109   110   ar
   110   110   111    1
   111   112   110   ar
   112   113   112    1
   113   114   112   ar
   114   115   114    1
   115   116   114   ar
   116   117   116    1
   117   118   109   ar
   118   119   118    1
   119   120    91   ar
   120   121   120    1
   121   122    96   ar
   122   123   122    1
   123   124   104   ar
   124   125   124    1
   125   126    98   ar
   126   127   126    1
   127   128    90    1
   128    91   128    1
   129   104   128    1
   130   105   107   ar
   131   109   128    1
   132   116   118   ar
   133   120   122   ar
   134   124   126   ar
@<TRIPOS>SUBSTRUCTURE
     1 RES1        1 GROUP             0 ****  ****    0  
     2 RES2       60 GROUP             0 ****  ****    0  
     3 RES3       72 GROUP             0 ****  ****    0  
     4 RES4       84 GROUP             0 ****  ****    0  
@<TRIPOS>CRYSIN
   14.4010   18.5700   19.1380   90.0000  107.2390   90.0000   231     1
