@<TRIPOS>MOLECULE
ZIYYEN
    78    80     3     0     0
SMALL
USER_CHARGES
****
Generated from the CSD

@<TRIPOS>ATOM
     1 Fe1      4.4355   5.0917  14.1663   Fe        1 RES1   2.0000
     2 O1       3.3701   4.0282  14.8611   O.2       1 RES1   0.0000
     3 N1       3.2824   6.7681  14.4678   N.3       1 RES1   0.0000
     4 C1       2.2695   6.8038  13.3332   C.3       1 RES1   0.0000
     5 H1       1.4134   7.1728  13.6668   H         1 RES1   0.0000
     6 H2       2.5996   7.3989  12.6153   H         1 RES1   0.0000
     7 C2       2.0364   5.4237  12.7728   C.3       1 RES1   0.0000
     8 H3       1.5691   4.8635  13.4406   H         1 RES1   0.0000
     9 H4       1.4692   5.4799  11.9633   H         1 RES1   0.0000
    10 N2       3.3585   4.8104  12.4277   N.3       1 RES1   0.0000
    11 C3       3.1311   3.3464  12.1581   C.3       1 RES1   0.0000
    12 H5       2.6174   3.2605  11.3153   H         1 RES1   0.0000
    13 H6       2.5696   2.9789  12.8863   H         1 RES1   0.0000
    14 C4       4.3751   2.5009  12.0440   C.3       1 RES1   0.0000
    15 H7       4.9395   2.8747  11.3214   H         1 RES1   0.0000
    16 H8       4.1066   1.5887  11.7677   H         1 RES1   0.0000
    17 C5       5.2153   2.3914  13.2951   C.3       1 RES1   0.0000
    18 H9       4.6424   2.0753  14.0376   H         1 RES1   0.0000
    19 H10      5.9191   1.7106  13.1472   H         1 RES1   0.0000
    20 N3       5.8649   3.6778  13.7018   N.3       1 RES1   0.0000
    21 C6       6.6734   3.4454  14.9662   C.3       1 RES1   0.0000
    22 H11      6.9476   2.4955  15.0157   H         1 RES1   0.0000
    23 H12      7.4925   4.0021  14.9444   H         1 RES1   0.0000
    24 C7       5.8543   3.7986  16.1829   C.3       1 RES1   0.0000
    25 H13      5.1021   3.1629  16.2811   H         1 RES1   0.0000
    26 H14      6.4164   3.7438  16.9964   H         1 RES1   0.0000
    27 N4       5.3288   5.1904  16.0166   N.3       1 RES1   0.0000
    28 C8       4.3214   5.4133  17.1050   C.3       1 RES1   0.0000
    29 H15      4.8001   5.4389  17.9704   H         1 RES1   0.0000
    30 H16      3.7109   4.6340  17.1268   H         1 RES1   0.0000
    31 C9       3.4862   6.6682  16.9878   C.3       1 RES1   0.0000
    32 H17      4.0957   7.4477  16.9576   H         1 RES1   0.0000
    33 H18      2.9343   6.7537  17.8053   H         1 RES1   0.0000
    34 C10      2.5655   6.7330  15.7786   C.3       1 RES1   0.0000
    35 H19      1.9669   5.9444  15.7921   H         1 RES1   0.0000
    36 H20      1.9993   7.5419  15.8532   H         1 RES1   0.0000
    37 C11      4.1062   8.0120  14.3553   C.3       1 RES1   0.0000
    38 H21      4.3926   8.3135  15.2541   H         1 RES1   0.0000
    39 H22      3.5756   8.7348  13.9358   H         1 RES1   0.0000
    40 C12      5.3114   7.6934  13.5060   C.2       1 RES1   0.0000
    41 O2       5.5940   6.4637  13.3306   O.2       1 RES1   0.0000
    42 N5       6.0723   8.6256  12.9923   N.am      1 RES1   0.0000
    43 C13      5.8551  10.0652  13.1457   C.3       1 RES1   0.0000
    44 H23      5.0054  10.2193  13.6097   H         1 RES1   0.0000
    45 H24      5.8259  10.4875  12.2628   H         1 RES1   0.0000
    46 H25      6.5876  10.4521  13.6688   H         1 RES1   0.0000
    47 C14      7.2368   8.2231  12.1921   C.3       1 RES1   0.0000
    48 H26      6.9496   7.6096  11.4844   H         1 RES1   0.0000
    49 H27      7.8899   7.7736  12.7682   H         1 RES1   0.0000
    50 H28      7.6476   9.0175  11.7901   H         1 RES1   0.0000
    51 C15      3.8795   5.4428  11.1875   C.3       1 RES1   0.0000
    52 H29      3.2339   5.3169  10.4615   H         1 RES1   0.0000
    53 H30      4.7319   5.0276  10.9424   H         1 RES1   0.0000
    54 H31      4.0146   6.4012  11.3418   H         1 RES1   0.0000
    55 C16      6.8654   4.0633  12.6655   C.3       1 RES1   0.0000
    56 H32      7.5109   3.3347  12.5481   H         1 RES1   0.0000
    57 H33      7.3362   4.8735  12.9516   H         1 RES1   0.0000
    58 H34      6.4066   4.2349  11.8166   H         1 RES1   0.0000
    59 C17      6.4583   6.1625  16.1721   C.3       1 RES1   0.0000
    60 H35      6.9270   5.9877  17.0147   H         1 RES1   0.0000
    61 H36      6.1042   7.0763  16.1793   H         1 RES1   0.0000
    62 H37      7.0833   6.0597  15.4233   H         1 RES1   0.0000
    63 S1       2.9253   9.9200  10.7951   S.o2      2 RES2   0.0000
    64 O3       3.2999  10.9274   9.8449   O.2       2 RES2   0.0000
    65 O4       3.6836   8.6977  10.7225   O.2       2 RES2   0.0000
    66 O5       2.6930  10.3816  12.1436   O.3       2 RES2  -1.0000
    67 C18      1.2590   9.4188  10.2408   C.3       2 RES2   0.0000
    68 F1       0.7514   8.4748  11.0168   F         2 RES2   0.0000
    69 F2       0.4191  10.4542  10.2744   F         2 RES2   0.0000
    70 F3       1.2732   8.9677   8.9878   F         2 RES2   0.0000
    71 S2      10.4381   5.2921  13.8718   S.o2      3 RES3   0.0000
    72 O6       9.2963   6.1209  14.1683   O.3       3 RES3  -1.0000
    73 O7      11.6815   5.7616  14.4111   O.2       3 RES3   0.0000
    74 O8      10.1848   3.8874  14.0244   O.2       3 RES3   0.0000
    75 C19     10.6367   5.5054  12.0713   C.3       3 RES3   0.0000
    76 F4      11.5718   4.6906  11.5926   F         3 RES3   0.0000
    77 F5       9.5153   5.2242  11.4107   F         3 RES3   0.0000
    78 F6      10.9893   6.7413  11.7850   F         3 RES3   0.0000
@<TRIPOS>BOND
     1     1     2    2
     2     3     1    1
     3     4     3    1
     4     5     4    1
     5     6     4    1
     6     7     4    1
     7     8     7    1
     8     9     7    1
     9    10     1    1
    10    11    10    1
    11    12    11    1
    12    13    11    1
    13    14    11    1
    14    15    14    1
    15    16    14    1
    16    17    14    1
    17    18    17    1
    18    19    17    1
    19    20     1    1
    20    21    20    1
    21    22    21    1
    22    23    21    1
    23    24    21    1
    24    25    24    1
    25    26    24    1
    26    27     1    1
    27    28    27    1
    28    29    28    1
    29    30    28    1
    30    31    28    1
    31    32    31    1
    32    33    31    1
    33    34     3    1
    34    35    34    1
    35    36    34    1
    36    37     3    1
    37    38    37    1
    38    39    37    1
    39    40    37    1
    40    41     1    1
    41    42    40   am
    42    43    42    1
    43    44    43    1
    44    45    43    1
    45    46    43    1
    46    47    42    1
    47    48    47    1
    48    49    47    1
    49    50    47    1
    50    51    10    1
    51    52    51    1
    52    53    51    1
    53    54    51    1
    54    55    20    1
    55    56    55    1
    56    57    55    1
    57    58    55    1
    58    59    27    1
    59    60    59    1
    60    61    59    1
    61    62    59    1
    62     7    10    1
    63    17    20    1
    64    24    27    1
    65    31    34    1
    66    40    41    2
    67    63    64    2
    68    65    63    2
    69    66    63    1
    70    67    63    1
    71    68    67    1
    72    69    67    1
    73    70    67    1
    74    71    72    1
    75    73    71    2
    76    74    71    2
    77    75    71    1
    78    76    75    1
    79    77    75    1
    80    78    75    1
@<TRIPOS>SUBSTRUCTURE
     1 RES1        1 GROUP             0 ****  ****    0  
     2 RES2       63 GROUP             0 ****  ****    0  
     3 RES3       71 GROUP             0 ****  ****    0  
@<TRIPOS>CRYSIN
   12.4264   11.0862   20.4399   90.0000   94.5000   90.0000   231     1
