@<TRIPOS>MOLECULE
ZODNEP
   106   106     7     0     0
SMALL
USER_CHARGES
****
Generated from the CSD

@<TRIPOS>ATOM
     1 Fe1      2.3800  -1.1714   9.2101   Fe        1 RES1   2.0000
     2 N1       1.4416   0.2217  10.4686   N.3       1 RES1   0.0000
     3 H1       1.2480   0.9751   9.9963   H         1 RES1   0.0000
     4 H2       1.9975   0.4303  11.1581   H         1 RES1   0.0000
     5 H3       0.6721  -0.1364  10.7971   H         1 RES1   0.0000
     6 N2       0.5375  -2.0642   9.0847   N.3       1 RES1   0.0000
     7 H4       0.2278  -2.2396   9.9221   H         1 RES1   0.0000
     8 H5       0.6086  -2.8423   8.6183   H         1 RES1   0.0000
     9 H6      -0.0414  -1.5066   8.6578   H         1 RES1   0.0000
    10 N3       3.9948  -0.0170   9.4852   N.ar      1 RES1   0.0000
    11 N4       6.8547   3.0186  10.0250   N.pl3     1 RES1   0.0000
    12 N5       3.0174   1.0933   7.7510   N.pl3     1 RES1   0.0000
    13 N6       1.6562   0.0113   6.4841   N.pl3     1 RES1   0.0000
    14 N7       3.3646  -3.0072   6.9537   N.pl3     1 RES1   0.0000
    15 N8       3.2709  -3.7867   8.9591   N.pl3     1 RES1   0.0000
    16 N9       2.9300  -5.7661  13.3833   N.pl3     1 RES1   0.0000
    17 N10      2.7164  -2.4888  10.7501   N.ar      1 RES1   0.0000
    18 C1       5.0004  -0.1291  10.3794   C.ar      1 RES1   0.0000
    19 H7       5.0337  -0.9143  10.9132   H         1 RES1   0.0000
    20 C2       5.9805   0.8192  10.5689   C.ar      1 RES1   0.0000
    21 H8       6.6824   0.6615  11.1894   H         1 RES1   0.0000
    22 C3       5.9388   2.0353   9.8333   C.ar      1 RES1   0.0000
    23 C4       7.8822   2.8908  11.0519   C.3       1 RES1   0.0000
    24 H9       7.4593   2.8655  11.9356   H         1 RES1   0.0000
    25 H10      8.4904   3.6576  11.0026   H         1 RES1   0.0000
    26 H11      8.3872   2.0635  10.9076   H         1 RES1   0.0000
    27 C5       6.7313   4.2941   9.3281   C.3       1 RES1   0.0000
    28 H12      6.7319   4.1390   8.3604   H         1 RES1   0.0000
    29 H13      7.4865   4.8712   9.5669   H         1 RES1   0.0000
    30 H14      5.8926   4.7289   9.5887   H         1 RES1   0.0000
    31 C6       4.8993   2.1612   8.8870   C.ar      1 RES1   0.0000
    32 H15      4.8200   2.9451   8.3564   H         1 RES1   0.0000
    33 C7       3.9992   1.1217   8.7472   C.ar      1 RES1   0.0000
    34 C8       2.2297  -0.0398   7.7109   C.3       1 RES1   0.0000
    35 C9       2.9399   1.8181   6.5585   C.2       1 RES1   0.0000
    36 H16      3.3925   2.6267   6.3493   H         1 RES1   0.0000
    37 C10      2.0923   1.1346   5.7678   C.2       1 RES1   0.0000
    38 H17      1.8359   1.3706   4.8840   H         1 RES1   0.0000
    39 C11      1.0777  -1.1681   5.8365   C.3       1 RES1   0.0000
    40 H18      0.3419  -0.8877   5.2364   H         1 RES1   0.0000
    41 H19      0.6994  -1.7705   6.5251   H         1 RES1   0.0000
    42 C12      2.1384  -1.9204   5.0269   C.3       1 RES1   0.0000
    43 H20      1.7740  -2.8031   4.7662   H         1 RES1   0.0000
    44 H21      2.3236  -1.4145   4.1962   H         1 RES1   0.0000
    45 C13      3.4516  -2.1323   5.7767   C.3       1 RES1   0.0000
    46 H22      4.1133  -2.5164   5.1484   H         1 RES1   0.0000
    47 H23      3.7936  -1.2496   6.0664   H         1 RES1   0.0000
    48 C14      3.6588  -4.3709   6.8935   C.2       1 RES1   0.0000
    49 H24      3.8608  -4.8628   6.1064   H         1 RES1   0.0000
    50 C15      3.6069  -4.8674   8.1422   C.2       1 RES1   0.0000
    51 H25      3.7654  -5.7644   8.4113   H         1 RES1   0.0000
    52 C16      3.1061  -2.6185   8.2339   C.3       1 RES1   0.0000
    53 C17      3.0591  -3.7349  10.3444   C.ar      1 RES1   0.0000
    54 C18      3.1622  -4.8474  11.1528   C.ar      1 RES1   0.0000
    55 H26      3.4233  -5.6866  10.7922   H         1 RES1   0.0000
    56 C19      3.1730  -7.1098  12.8760   C.3       1 RES1   0.0000
    57 H27      2.4304  -7.3797  12.2965   H         1 RES1   0.0000
    58 H28      3.2450  -7.7347  13.6275   H         1 RES1   0.0000
    59 H29      4.0080  -7.1191  12.3627   H         1 RES1   0.0000
    60 C20      2.4958  -5.6206  14.7666   C.3       1 RES1   0.0000
    61 H30      2.9577  -4.8592  15.1756   H         1 RES1   0.0000
    62 H31      2.7091  -6.4377  15.2637   H         1 RES1   0.0000
    63 H32      1.5281  -5.4668  14.7907   H         1 RES1   0.0000
    64 C21      2.8713  -4.7123  12.5280   C.ar      1 RES1   0.0000
    65 C22      2.5074  -3.4155  12.9677   C.ar      1 RES1   0.0000
    66 H33      2.3026  -3.2647  13.8831   H         1 RES1   0.0000
    67 C23      2.4504  -2.3766  12.0725   C.ar      1 RES1   0.0000
    68 H34      2.2077  -1.5199  12.4037   H         1 RES1   0.0000
    69 P1       0.7431   4.2571   9.3114   P.3       2 RES2  -1.0000
    70 F1      -0.7854   4.5321   9.6487   F         2 RES2   0.0000
    71 F2       0.5157   4.7951   7.8317   F         2 RES2   0.0000
    72 F3       2.2832   3.9988   8.9768   F         2 RES2   0.0000
    73 F4       0.9930   3.7419  10.8007   F         2 RES2   0.0000
    74 F5       1.1129   5.7431   9.7704   F         2 RES2   0.0000
    75 F6       0.3844   2.7661   8.8475   F         2 RES2   0.0000
    76 P2       9.2468  -1.1424  12.3824   P.3       3 RES3  -1.0000
    77 F7       9.5093  -0.3308  11.0229   F         3 RES3   0.0000
    78 F8       8.6963   0.1997  13.0466   F         3 RES3   0.0000
    79 F9       9.0048  -1.9484  13.7115   F         3 RES3   0.0000
    80 F10      9.8088  -2.4530  11.6528   F         3 RES3   0.0000
    81 F11      7.7695  -1.4903  11.8812   F         3 RES3   0.0000
    82 F12     10.7382  -0.7845  12.8596   F         3 RES3   0.0000
    83 N11     -1.5582  -0.3885   7.4849   N.1       4 RES4   0.0000
    84 C24     -1.8760   0.6959   7.3319   C.1       4 RES4   0.0000
    85 C25     -2.3038   2.0784   7.1281   C.3       4 RES4   0.0000
    86 H35     -2.5075   2.2210   6.1802   H         4 RES4   0.0000
    87 H36     -1.5861   2.6864   7.4031   H         4 RES4   0.0000
    88 H37     -3.1048   2.2549   7.6644   H         4 RES4   0.0000
    89 N12      1.7724   2.9466  14.7010   N.1       5 RES5   0.0000
    90 C26      0.8072   2.7870  14.1135   C.1       5 RES5   0.0000
    91 C27     -0.4387   2.5741  13.3845   C.3       5 RES5   0.0000
    92 H38     -0.3716   2.9831  12.4964   H         5 RES5   0.0000
    93 H39     -1.1799   2.9839  13.8777   H         5 RES5   0.0000
    94 H40     -0.6015   1.6124  13.2898   H         5 RES5   0.0000
    95 N13      4.2622   6.4458  11.4843   N.1       6 RES6   0.0000
    96 C28      4.1360   5.3476  11.7643   C.1       6 RES6   0.0000
    97 C29      3.9952   3.9463  12.1238   C.3       6 RES6   0.0000
    98 H41      3.6615   3.4429  11.3520   H         6 RES6   0.0000
    99 H42      3.3623   3.8618  12.8673   H         6 RES6   0.0000
   100 H43      4.8668   3.5893  12.3946   H         6 RES6   0.0000
   101 N14     11.3631  -5.5877   9.8138   N.1       7 RES7   0.0000
   102 C30     11.0499  -5.4819  10.9007   C.1       7 RES7   0.0000
   103 C31     10.6505  -5.3222  12.2921   C.3       7 RES7   0.0000
   104 H44      9.6719  -5.2948  12.3499   H         7 RES7   0.0000
   105 H45     11.0210  -4.4859  12.6446   H         7 RES7   0.0000
   106 H46     10.9875  -6.0765  12.8181   H         7 RES7   0.0000
@<TRIPOS>BOND
     1     1     2    1
     2     2     3    1
     3     4     2    1
     4     5     2    1
     5     6     1    1
     6     7     6    1
     7     8     6    1
     8     9     6    1
     9    10     1    1
    10    11    22    1
    11    12    33    1
    12    13    34    1
    13    14    45    1
    14    15    50    1
    15    16    56    1
    16    17     1    1
    17    18    10   ar
    18    19    18    1
    19    20    18   ar
    20    21    20    1
    21    22    20   ar
    22    23    11    1
    23    24    23    1
    24    25    23    1
    25    26    23    1
    26    27    11    1
    27    28    27    1
    28    29    27    1
    29    30    27    1
    30    31    22   ar
    31    32    31    1
    32    33    10   ar
    33    34     1    1
    34    35    12    1
    35    36    35    1
    36    37    13    1
    37    38    37    1
    38    39    13    1
    39    40    39    1
    40    41    39    1
    41    42    39    1
    42    43    42    1
    43    44    42    1
    44    45    42    1
    45    46    45    1
    46    47    45    1
    47    48    14    1
    48    49    48    1
    49    50    48    2
    50    51    50    1
    51    52     1    1
    52    53    15    1
    53    54    53   ar
    54    55    54    1
    55    56    57    1
    56    58    56    1
    57    59    56    1
    58    60    16    1
    59    61    60    1
    60    62    60    1
    61    63    60    1
    62    64    16    1
    63    65    64   ar
    64    66    65    1
    65    67    17   ar
    66    68    67    1
    67    12    34    1
    68    14    52    1
    69    15    52    1
    70    17    53   ar
    71    31    33   ar
    72    35    37    2
    73    54    64   ar
    74    65    67   ar
    75    69    70    1
    76    71    69    1
    77    72    69    1
    78    73    69    1
    79    74    69    1
    80    75    69    1
    81    76    77    1
    82    78    76    1
    83    79    76    1
    84    80    76    1
    85    81    76    1
    86    82    76    1
    87    83    84    3
    88    84    85    1
    89    85    86    1
    90    87    85    1
    91    88    85    1
    92    89    90    3
    93    90    91    1
    94    91    92    1
    95    93    91    1
    96    94    91    1
    97    95    96    3
    98    96    97    1
    99    97    98    1
   100    99    97    1
   101   100    97    1
   102   101   102    3
   103   102   103    1
   104   103   104    1
   105   105   103    1
   106   106   103    1
@<TRIPOS>SUBSTRUCTURE
     1 RES1        1 GROUP             0 ****  ****    0  
     2 RES2       69 GROUP             0 ****  ****    0  
     3 RES3       76 GROUP             0 ****  ****    0  
     4 RES4       83 GROUP             0 ****  ****    0  
     5 RES5       89 GROUP             0 ****  ****    0  
     6 RES6       95 GROUP             0 ****  ****    0  
     7 RES7      101 GROUP             0 ****  ****    0  
@<TRIPOS>CRYSIN
   11.2792   13.7967   14.7941  107.3420   94.9740  104.7150     2     1
