@<TRIPOS>MOLECULE
ZODZOL
    98   106     2     0     0
SMALL
USER_CHARGES
****
Generated from the CSD

@<TRIPOS>ATOM
     1 Fe1     12.1871   7.7152  17.1765   Fe        1 RES1   1.0000
     2 S1      10.8648   6.8592  15.5780   S.3       1 RES1   0.0000
     3 P1      11.0274   9.5863  17.0897   P.3       1 RES1   0.0000
     4 P2      13.8087   6.3653  16.5180   P.3       1 RES1   0.0000
     5 N1      13.0539   8.2389  18.7941   N.1       1 RES1   0.0000
     6 N2      10.8302   6.7667  18.4631   N.pl3     1 RES1   0.0000
     7 H1      11.3359   6.4387  19.1440   H         1 RES1   0.0000
     8 C1      10.1322   5.5178  16.4965   C.ar      1 RES1   0.0000
     9 C2      11.7914  10.1816  14.4645   C.ar      1 RES1   0.0000
    10 H2      12.0322   9.2846  14.4131   H         1 RES1   0.0000
    11 C3      15.9173   7.9323  17.5100   C.ar      1 RES1   0.0000
    12 H3      15.3451   8.6514  17.3622   H         1 RES1   0.0000
    13 C4      11.2201  10.6736  15.6347   C.ar      1 RES1   0.0000
    14 C5      13.0902   3.9296  17.6203   C.ar      1 RES1   0.0000
    15 H4      12.7549   4.4556  18.3090   H         1 RES1   0.0000
    16 C6       9.2447   9.1850  17.1380   C.ar      1 RES1   0.0000
    17 C7      15.3378   7.6876  12.9274   C.ar      1 RES1   0.0000
    18 H5      16.1322   8.0660  12.6258   H         1 RES1   0.0000
    19 C8      13.6915   4.5288  16.5462   C.ar      1 RES1   0.0000
    20 C9      12.5501  11.2791  18.6550   C.ar      1 RES1   0.0000
    21 H6      13.2441  10.9927  18.1051   H         1 RES1   0.0000
    22 C10     11.2721  10.7947  18.4358   C.ar      1 RES1   0.0000
    23 C11     14.0542   6.7061  14.7259   C.ar      1 RES1   0.0000
    24 C12     15.4816   6.6330  17.2329   C.ar      1 RES1   0.0000
    25 C13      8.8325   8.2641  18.1191   C.ar      1 RES1   0.0000
    26 C14     15.2317   7.2776  14.2512   C.ar      1 RES1   0.0000
    27 H7      15.9550   7.3873  14.8237   H         1 RES1   0.0000
    28 C15     10.1855   5.5960  17.8677   C.ar      1 RES1   0.0000
    29 C16     10.2418  11.2551  19.2501   C.ar      1 RES1   0.0000
    30 H8       9.3719  10.9587  19.1161   H         1 RES1   0.0000
    31 C17     18.0438   7.1010  18.2506   C.ar      1 RES1   0.0000
    32 H9      18.8993   7.2574  18.5799   H         1 RES1   0.0000
    33 C18     12.9865   6.5459  13.8362   C.ar      1 RES1   0.0000
    34 C19     11.7168   5.8874  14.2618   C.3       1 RES1   0.0000
    35 H10     11.9112   4.9981  14.5947   H         1 RES1   0.0000
    36 H11     11.1276   5.7991  13.4971   H         1 RES1   0.0000
    37 C20      7.4959   7.8869  18.1610   C.ar      1 RES1   0.0000
    38 H12      7.2096   7.2889  18.8144   H         1 RES1   0.0000
    39 C21      8.3270   9.6555  16.2172   C.ar      1 RES1   0.0000
    40 H13      8.5960  10.2509  15.5554   H         1 RES1   0.0000
    41 C22     10.8585  12.0133  15.6754   C.ar      1 RES1   0.0000
    42 H14     10.4613  12.3589  16.4406   H         1 RES1   0.0000
    43 C23     14.2770   7.5375  12.0533   C.ar      1 RES1   0.0000
    44 H15     14.3493   7.8137  11.1708   H         1 RES1   0.0000
    45 C24     13.4630   8.5517  19.8170   C.1       1 RES1   0.0000
    46 C25     16.3479   5.5708  17.5038   C.ar      1 RES1   0.0000
    47 H16     16.0724   4.6966  17.3483   H         1 RES1   0.0000
    48 C26      9.5773   4.3963  15.8933   C.ar      1 RES1   0.0000
    49 H17      9.5129   4.3408  14.9661   H         1 RES1   0.0000
    50 C27     13.1170   6.9748  12.5191   C.ar      1 RES1   0.0000
    51 H18     12.3995   6.8764  11.9388   H         1 RES1   0.0000
    52 C28     17.1861   8.1594  18.0007   C.ar      1 RES1   0.0000
    53 H19     17.4670   9.0311  18.1665   H         1 RES1   0.0000
    54 C29     17.6174   5.8155  18.0046   C.ar      1 RES1   0.0000
    55 H20     18.1883   5.1015  18.1777   H         1 RES1   0.0000
    56 C30      9.8103   7.6611  19.1200   C.3       1 RES1   0.0000
    57 H21     10.2719   8.3776  19.5852   H         1 RES1   0.0000
    58 H22      9.3177   7.1489  19.7779   H         1 RES1   0.0000
    59 C31     11.7926  12.6137  20.4733   C.ar      1 RES1   0.0000
    60 H23     11.9666  13.2205  21.1547   H         1 RES1   0.0000
    61 C32     12.8157  12.1710  19.6606   C.ar      1 RES1   0.0000
    62 H24     13.6852  12.4750  19.7975   H         1 RES1   0.0000
    63 C33     12.0049  11.0053  13.3882   C.ar      1 RES1   0.0000
    64 H25     12.3852  10.6609  12.6119   H         1 RES1   0.0000
    65 C34     10.5174  12.1558  20.2667   C.ar      1 RES1   0.0000
    66 H26      9.8280  12.4535  20.8168   H         1 RES1   0.0000
    67 C35      6.5847   8.3814  17.2589   C.ar      1 RES1   0.0000
    68 H27      5.6896   8.1329  17.3148   H         1 RES1   0.0000
    69 C36     14.2061   3.7227  15.5442   C.ar      1 RES1   0.0000
    70 H28     14.6070   4.1112  14.8013   H         1 RES1   0.0000
    71 C37     12.9751   2.5444  17.6974   C.ar      1 RES1   0.0000
    72 H29     12.5332   2.1546  18.4207   H         1 RES1   0.0000
    73 C38     11.6661  12.3312  13.4469   C.ar      1 RES1   0.0000
    74 H30     11.8267  12.8887  12.7208   H         1 RES1   0.0000
    75 C39     13.9288   8.9995  21.0989   C.3       1 RES1   0.0000
    76 H31     14.8857   9.0803  21.0793   H         1 RES1   0.0000
    77 H32     13.6744   8.3650  21.7719   H         1 RES1   0.0000
    78 H33     13.5394   9.8536  21.3000   H         1 RES1   0.0000
    79 C40     13.5074   1.7522  16.7171   C.ar      1 RES1   0.0000
    80 H34     13.4523   0.8263  16.7786   H         1 RES1   0.0000
    81 C41     11.0869  12.8345  14.5919   C.ar      1 RES1   0.0000
    82 H35     10.8476  13.7327  14.6338   H         1 RES1   0.0000
    83 C42      9.6896   4.5856  18.6608   C.ar      1 RES1   0.0000
    84 H36      9.7083   4.6600  19.5852   H         1 RES1   0.0000
    85 C43      9.1153   3.3644  16.6920   C.ar      1 RES1   0.0000
    86 H37      8.7703   2.5962  16.2982   H         1 RES1   0.0000
    87 C44      6.9968   9.2405  16.2787   C.ar      1 RES1   0.0000
    88 H38      6.3883   9.5483  15.6475   H         1 RES1   0.0000
    89 C45     14.1226   2.3376  15.6419   C.ar      1 RES1   0.0000
    90 H39     14.4895   1.8039  14.9745   H         1 RES1   0.0000
    91 C46      9.1629   3.4603  18.0548   C.ar      1 RES1   0.0000
    92 H40      8.8378   2.7639  18.5771   H         1 RES1   0.0000
    93 H41     13.1018   8.5656  16.4071   H         1 RES1   0.0000
    94 F1      14.4812   7.1691   6.6461   F         2 RES2   0.0000
    95 F2      12.6434   7.4037   7.9648   F         2 RES2   0.0000
    96 F3      14.7027   8.0093   8.6811   F         2 RES2   0.0000
    97 F4      14.2291   5.9782   8.4423   F         2 RES2   0.0000
    98 B1      13.9501   7.2700   7.8643   B         2 RES2  -1.0000
@<TRIPOS>BOND
     1     1     2    1
     2     2     8    1
     3     3     1    1
     4     4     1    1
     5     5     1    1
     6     6     1    1
     7     7     6    1
     8     8    28   ar
     9     9    10    1
    10    11    12    1
    11    13     3    1
    12    14    15    1
    13    16     3    1
    14    17    18    1
    15    19     4    1
    16    20    21    1
    17    22     3    1
    18    23     4    1
    19    24     4    1
    20    25    16   ar
    21    26    17   ar
    22    27    26    1
    23    28     6    1
    24    29    22   ar
    25    30    29    1
    26    31    32    1
    27    33    23   ar
    28    34     2    1
    29    35    34    1
    30    36    34    1
    31    37    25   ar
    32    38    37    1
    33    39    16   ar
    34    40    39    1
    35    41    13   ar
    36    42    41    1
    37    43    17   ar
    38    44    43    1
    39    45     5    3
    40    46    24   ar
    41    47    46    1
    42    48     8   ar
    43    49    48    1
    44    50    33   ar
    45    51    50    1
    46    52    11   ar
    47    53    52    1
    48    54    31   ar
    49    55    54    1
    50    56     6    1
    51    57    56    1
    52    58    56    1
    53    59    60    1
    54    61    20   ar
    55    62    61    1
    56    63     9   ar
    57    64    63    1
    58    65    29   ar
    59    66    65    1
    60    67    37   ar
    61    68    67    1
    62    69    19   ar
    63    70    69    1
    64    71    14   ar
    65    72    71    1
    66    73    63   ar
    67    74    73    1
    68    75    45    1
    69    76    75    1
    70    77    75    1
    71    78    75    1
    72    79    71   ar
    73    80    79    1
    74    81    41   ar
    75    82    81    1
    76    83    28   ar
    77    84    83    1
    78    85    48   ar
    79    86    85    1
    80    87    39   ar
    81    88    87    1
    82    89    69   ar
    83    90    89    1
    84    91    83   ar
    85    92    91    1
    86    93     1    1
    87     9    13   ar
    88    11    24   ar
    89    14    19   ar
    90    20    22   ar
    91    23    26   ar
    92    25    56    1
    93    31    52   ar
    94    33    34    1
    95    43    50   ar
    96    46    54   ar
    97    59    61   ar
    98    59    65   ar
    99    67    87   ar
   100    73    81   ar
   101    79    89   ar
   102    85    91   ar
   103    94    98    1
   104    95    98    1
   105    96    98    1
   106    97    98    1
@<TRIPOS>SUBSTRUCTURE
     1 RES1        1 GROUP             0 ****  ****    0  
     2 RES2       94 GROUP             0 ****  ****    0  
@<TRIPOS>CRYSIN
   23.0990   12.6150   28.2180   90.0000   98.2350   90.0000    15     1
