@<TRIPOS>MOLECULE
ZOFBAB
    88    97     1     0     0
SMALL
NO_CHARGES
****
Generated from the CSD

@<TRIPOS>ATOM
     1 C1      -0.0348  10.8123   3.9181   C.1       1 RES1   0.0000
     2 C2       4.0248  10.0564   4.8164   C.ar      1 RES1   0.0000
     3 C3       3.9120   8.9911   5.7312   C.ar      1 RES1   0.0000
     4 C4       5.0083   8.4237   6.3395   C.ar      1 RES1   0.0000
     5 H1       4.8893   7.7669   6.9875   H         1 RES1   0.0000
     6 C5       6.3054   8.8296   5.9931   C.ar      1 RES1   0.0000
     7 H2       7.0560   8.4317   6.3743   H         1 RES1   0.0000
     8 C6       6.4201   9.8180   5.0865   C.ar      1 RES1   0.0000
     9 H3       7.2744  10.0897   4.8396   H         1 RES1   0.0000
    10 C7       5.3553  10.4444   4.5097   C.ar      1 RES1   0.0000
    11 H4       5.5034  11.1349   3.9048   H         1 RES1   0.0000
    12 C8       2.9665  11.9288   3.6479   C.3       1 RES1   0.0000
    13 H5       2.5439  11.8355   2.7794   H         1 RES1   0.0000
    14 H6       3.9014  12.1340   3.4905   H         1 RES1   0.0000
    15 C9       2.3062  13.1816   4.3805   C.ar      1 RES1   0.0000
    16 C10      2.4996  14.4182   3.7623   C.ar      1 RES1   0.0000
    17 H7       3.1186  14.4781   3.0711   H         1 RES1   0.0000
    18 C11      1.8290  15.5259   4.1252   C.ar      1 RES1   0.0000
    19 H8       1.9873  16.3359   3.6960   H         1 RES1   0.0000
    20 C12      0.9162  15.4420   5.1313   C.ar      1 RES1   0.0000
    21 H9       0.4238  16.1902   5.3815   H         1 RES1   0.0000
    22 C13      0.7306  14.2425   5.7727   C.ar      1 RES1   0.0000
    23 H10      0.1039  14.1931   6.4572   H         1 RES1   0.0000
    24 C14      1.4409  13.1051   5.4379   C.ar      1 RES1   0.0000
    25 C15     -0.2823  11.8276   7.3455   C.ar      1 RES1   0.0000
    26 C16     -1.5111  11.2380   7.0455   C.ar      1 RES1   0.0000
    27 H11     -1.5773  10.6528   6.3246   H         1 RES1   0.0000
    28 C17     -2.6398  11.5161   7.8146   C.ar      1 RES1   0.0000
    29 H12     -3.4512  11.1132   7.6041   H         1 RES1   0.0000
    30 C18     -2.5653  12.3741   8.8703   C.ar      1 RES1   0.0000
    31 H13     -3.3276  12.5788   9.3626   H         1 RES1   0.0000
    32 C19     -1.3534  12.9335   9.2051   C.ar      1 RES1   0.0000
    33 H14     -1.2911  13.4979   9.9410   H         1 RES1   0.0000
    34 C20     -0.2302  12.6585   8.4477   C.ar      1 RES1   0.0000
    35 H15      0.5819  13.0433   8.6880   H         1 RES1   0.0000
    36 C21      2.5052  11.4703   7.5444   C.ar      1 RES1   0.0000
    37 C22      2.4812  10.5117   8.5355   C.ar      1 RES1   0.0000
    38 H16      1.7599   9.9258   8.5803   H         1 RES1   0.0000
    39 C23      3.4905  10.3972   9.4587   C.ar      1 RES1   0.0000
    40 H17      3.4531   9.7288  10.1051   H         1 RES1   0.0000
    41 C24      4.5374  11.2481   9.4305   C.ar      1 RES1   0.0000
    42 H18      5.2180  11.1879  10.0603   H         1 RES1   0.0000
    43 C25      4.5701  12.1995   8.4543   C.ar      1 RES1   0.0000
    44 H19      5.2863  12.7919   8.4245   H         1 RES1   0.0000
    45 C26      3.5826  12.3085   7.5196   C.ar      1 RES1   0.0000
    46 H20      3.6444  12.9598   6.8599   H         1 RES1   0.0000
    47 C27      2.2005   6.7922   5.4362   C.3       1 RES1   0.0000
    48 H21      2.5957   6.1822   6.0793   H         1 RES1   0.0000
    49 H22      1.2673   6.5456   5.3401   H         1 RES1   0.0000
    50 C28      2.8956   6.5771   4.0805   C.ar      1 RES1   0.0000
    51 C29      3.9768   5.7101   4.0573   C.ar      1 RES1   0.0000
    52 H23      4.2176   5.2559   4.8313   H         1 RES1   0.0000
    53 C30      4.6825   5.5170   2.9286   C.ar      1 RES1   0.0000
    54 H24      5.4239   4.9562   2.9236   H         1 RES1   0.0000
    55 C31      4.2882   6.1630   1.7833   C.ar      1 RES1   0.0000
    56 H25      4.7247   5.9848   0.9812   H         1 RES1   0.0000
    57 C32      3.2317   7.0901   1.8099   C.ar      1 RES1   0.0000
    58 H26      3.0101   7.5688   1.0442   H         1 RES1   0.0000
    59 C33      2.5311   7.2847   2.9717   C.ar      1 RES1   0.0000
    60 C34     -0.2964   7.3028   2.8772   C.ar      1 RES1   0.0000
    61 C35     -0.1820   6.1779   2.1049   C.ar      1 RES1   0.0000
    62 H27      0.6361   5.9577   1.7220   H         1 RES1   0.0000
    63 C36     -1.2919   5.3612   1.8944   C.ar      1 RES1   0.0000
    64 H28     -1.2082   4.5974   1.3707   H         1 RES1   0.0000
    65 C37     -2.5129   5.6736   2.4529   C.ar      1 RES1   0.0000
    66 H29     -3.2472   5.1240   2.3038   H         1 RES1   0.0000
    67 C38     -2.6408   6.7875   3.2253   C.ar      1 RES1   0.0000
    68 H30     -3.4627   7.0063   3.6032   H         1 RES1   0.0000
    69 C39     -1.5125   7.6088   3.4440   C.ar      1 RES1   0.0000
    70 H31     -1.5922   8.3659   3.9794   H         1 RES1   0.0000
    71 C40      1.1566   9.3173   1.4900   C.ar      1 RES1   0.0000
    72 C41      2.2720  10.0758   1.1552   C.ar      1 RES1   0.0000
    73 H32      3.0139  10.0823   1.7154   H         1 RES1   0.0000
    74 C42      2.2773  10.8234  -0.0166   C.ar      1 RES1   0.0000
    75 H33      3.0238  11.3310  -0.2403   H         1 RES1   0.0000
    76 C43      1.1673  10.8139  -0.8536   C.ar      1 RES1   0.0000
    77 H34      1.1718  11.3136  -1.6375   H         1 RES1   0.0000
    78 C44      0.0519  10.0542  -0.5188   C.ar      1 RES1   0.0000
    79 H35     -0.6901  10.0476  -1.0790   H         1 RES1   0.0000
    80 C45      0.0466   9.3065   0.6530   C.ar      1 RES1   0.0000
    81 H36     -0.6999   8.7990   0.8768   H         1 RES1   0.0000
    82 Fe1      1.1114   9.8817   4.8023   Fe        1 RES1   0.0000
    83 H37     -0.1131   9.1301   5.5522   H         1 RES1   0.0000
    84 N1       2.8999  10.6395   4.3142   N.2       1 RES1   0.0000
    85 O1      -0.9038  11.3927   3.3728   O.2       1 RES1   0.0000
    86 P1       1.1259   8.4496   3.0953   P.3       1 RES1   0.0000
    87 P2       1.1703  11.5130   6.2926   P.3       1 RES1   0.0000
    88 S1       2.2762   8.4932   6.1383   S.3       1 RES1   0.0000
@<TRIPOS>BOND
     1     1    82    1
     2     2     3   ar
     3     3     4   ar
     4     4     5    1
     5     6     4   ar
     6     7     6    1
     7     8     6   ar
     8     9     8    1
     9    10     2   ar
    10    11    10    1
    11    12    13    1
    12    14    12    1
    13    15    12    1
    14    16    15   ar
    15    17    16    1
    16    18    16   ar
    17    19    18    1
    18    20    18   ar
    19    21    20    1
    20    22    20   ar
    21    23    22    1
    22    24    15   ar
    23    25    26   ar
    24    26    27    1
    25    28    26   ar
    26    29    28    1
    27    30    28   ar
    28    31    30    1
    29    32    30   ar
    30    33    32    1
    31    34    25   ar
    32    35    34    1
    33    36    37   ar
    34    37    38    1
    35    39    37   ar
    36    40    39    1
    37    41    39   ar
    38    42    41    1
    39    43    41   ar
    40    44    43    1
    41    45    36   ar
    42    46    45    1
    43    47    48    1
    44    49    47    1
    45    50    47    1
    46    51    50   ar
    47    52    51    1
    48    53    51   ar
    49    54    53    1
    50    55    53   ar
    51    56    55    1
    52    57    55   ar
    53    58    57    1
    54    59    50   ar
    55    60    61   ar
    56    61    62    1
    57    63    61   ar
    58    64    63    1
    59    65    63   ar
    60    66    65    1
    61    67    65   ar
    62    68    67    1
    63    69    60   ar
    64    70    69    1
    65    71    72   ar
    66    72    73    1
    67    74    72   ar
    68    75    74    1
    69    76    74   ar
    70    77    76    1
    71    78    76   ar
    72    79    78    1
    73    80    71   ar
    74    81    80    1
    75    82    83    1
    76    84     2    1
    77    85     1    3
    78    86    59    1
    79    87    24    1
    80    88     3    1
    81     8    10   ar
    82    12    84    1
    83    22    24   ar
    84    25    87    1
    85    32    34   ar
    86    36    87    1
    87    43    45   ar
    88    47    88    1
    89    57    59   ar
    90    60    86    1
    91    67    69   ar
    92    71    86    1
    93    78    80   ar
    94    82    84    1
    95    82    86    1
    96    82    87    1
    97    82    88    1
@<TRIPOS>SUBSTRUCTURE
     1 RES1        1 GROUP             0 ****  ****    0  
@<TRIPOS>CRYSIN
   10.9560   12.3610   17.2220   74.9980   84.6490   87.6590     2     1
