@<TRIPOS>MOLECULE
ZOFBEF
   127   133     4     0     0
SMALL
USER_CHARGES
****
Generated from the CSD

@<TRIPOS>ATOM
     1 C1       0.1504  15.5135   4.9650   C.1       1 RES1   0.0000
     2 C2      -1.2125  15.3351   5.4246   C.3       1 RES1   0.0000
     3 H1      -1.8097  15.3590   4.6751   H         1 RES1   0.0000
     4 H2      -1.4383  16.0420   6.0366   H         1 RES1   0.0000
     5 H3      -1.2916  14.4889   5.8700   H         1 RES1   0.0000
     6 C3       2.3683  14.7932   1.2430   C.1       1 RES1   0.0000
     7 C4       2.0950  14.1757  -0.0430   C.3       1 RES1   0.0000
     8 H4       2.6245  14.5999  -0.7204   H         1 RES1   0.0000
     9 H5       1.1642  14.2758  -0.2556   H         1 RES1   0.0000
    10 H6       2.3137  13.2426  -0.0019   H         1 RES1   0.0000
    11 C5       5.1159  15.9974   6.1150   C.ar      1 RES1   0.0000
    12 C6       5.9517  15.7712   5.0317   C.ar      1 RES1   0.0000
    13 C7       7.3155  15.5746   5.2193   C.ar      1 RES1   0.0000
    14 H7       7.8846  15.4874   4.4892   H         1 RES1   0.0000
    15 C8       7.8112  15.5102   6.5091   C.ar      1 RES1   0.0000
    16 H8       8.7223  15.3808   6.6467   H         1 RES1   0.0000
    17 C9       6.9728  15.6346   7.5840   C.ar      1 RES1   0.0000
    18 H9       7.3092  15.5330   8.4439   H         1 RES1   0.0000
    19 C10      5.6230  15.9109   7.4029   C.ar      1 RES1   0.0000
    20 H10      5.0653  16.0355   8.1379   H         1 RES1   0.0000
    21 C11      5.6585  13.9660   2.9424   C.3       1 RES1   0.0000
    22 H11      4.9737  13.6254   2.3453   H         1 RES1   0.0000
    23 H12      6.4931  13.9886   2.4480   H         1 RES1   0.0000
    24 C12      5.8065  13.0152   4.0879   C.ar      1 RES1   0.0000
    25 C13      4.7519  12.7303   4.9678   C.ar      1 RES1   0.0000
    26 C14      4.9672  11.8580   6.0364   C.ar      1 RES1   0.0000
    27 H13      4.2750  11.6742   6.6292   H         1 RES1   0.0000
    28 C15      6.2040  11.2640   6.2177   C.ar      1 RES1   0.0000
    29 H14      6.3402  10.6845   6.9333   H         1 RES1   0.0000
    30 C16      7.2297  11.5279   5.3452   C.ar      1 RES1   0.0000
    31 H15      8.0565  11.1152   5.4614   H         1 RES1   0.0000
    32 C17      7.0401  12.3975   4.3027   C.ar      1 RES1   0.0000
    33 H16      7.7473  12.5791   3.7262   H         1 RES1   0.0000
    34 C18      2.3837  12.3468   3.4143   C.ar      1 RES1   0.0000
    35 C19      1.0814  12.5802   2.9730   C.ar      1 RES1   0.0000
    36 H17      0.5966  13.2926   3.3214   H         1 RES1   0.0000
    37 C20      0.5090  11.7613   2.0219   C.ar      1 RES1   0.0000
    38 H18     -0.3629  11.9200   1.7411   H         1 RES1   0.0000
    39 C21      1.2250  10.7006   1.4817   C.ar      1 RES1   0.0000
    40 H19      0.8311  10.1407   0.8521   H         1 RES1   0.0000
    41 C22      2.5218  10.4833   1.8836   C.ar      1 RES1   0.0000
    42 H20      3.0134   9.7905   1.5048   H         1 RES1   0.0000
    43 C23      3.1034  11.2916   2.8525   C.ar      1 RES1   0.0000
    44 H21      3.9763  11.1283   3.1277   H         1 RES1   0.0000
    45 C24      2.1840  13.0892   6.1917   C.ar      1 RES1   0.0000
    46 C25      2.5152  13.7724   7.3609   C.ar      1 RES1   0.0000
    47 H22      3.2143  14.3845   7.3497   H         1 RES1   0.0000
    48 C26      1.8204  13.5534   8.5347   C.ar      1 RES1   0.0000
    49 H23      2.0486  14.0213   9.3057   H         1 RES1   0.0000
    50 C27      0.7892  12.6405   8.5611   C.ar      1 RES1   0.0000
    51 H24      0.3198  12.4878   9.3502   H         1 RES1   0.0000
    52 C28      0.4559  11.9555   7.4116   C.ar      1 RES1   0.0000
    53 H25     -0.2392  11.3371   7.4310   H         1 RES1   0.0000
    54 C29      1.1422  12.1754   6.2312   C.ar      1 RES1   0.0000
    55 H26      0.9042  11.7090   5.4614   H         1 RES1   0.0000
    56 C30      3.1776  17.1842   6.6253   C.2       1 RES1   0.0000
    57 H27      3.5819  17.3232   7.4523   H         1 RES1   0.0000
    58 C31      1.9401  17.9042   6.3472   C.ar      1 RES1   0.0000
    59 C32      1.0616  18.1443   7.3837   C.ar      1 RES1   0.0000
    60 H28      1.2495  17.8192   8.2347   H         1 RES1   0.0000
    61 C33     -0.1031  18.8696   7.1610   C.ar      1 RES1   0.0000
    62 H29     -0.7220  18.9851   7.8455   H         1 RES1   0.0000
    63 C34     -0.3316  19.4120   5.9262   C.ar      1 RES1   0.0000
    64 H30     -1.1022  19.9117   5.7810   H         1 RES1   0.0000
    65 C35      0.5657  19.2293   4.8924   C.ar      1 RES1   0.0000
    66 H31      0.4084  19.6333   4.0709   H         1 RES1   0.0000
    67 C36      1.7017  18.4482   5.0671   C.ar      1 RES1   0.0000
    68 C37      4.3195  18.9420   3.8487   C.ar      1 RES1   0.0000
    69 C38      5.2428  18.8772   2.8163   C.ar      1 RES1   0.0000
    70 H32      5.0435  18.3978   2.0451   H         1 RES1   0.0000
    71 C39      6.4595  19.5245   2.9321   C.ar      1 RES1   0.0000
    72 H33      7.0727  19.4854   2.2330   H         1 RES1   0.0000
    73 C40      6.7709  20.2256   4.0728   C.ar      1 RES1   0.0000
    74 H34      7.5904  20.6578   4.1445   H         1 RES1   0.0000
    75 C41      5.8618  20.2865   5.1186   C.ar      1 RES1   0.0000
    76 H35      6.0801  20.7426   5.8991   H         1 RES1   0.0000
    77 C42      4.6272  19.6663   4.9949   C.ar      1 RES1   0.0000
    78 H36      4.0026  19.7355   5.6803   H         1 RES1   0.0000
    79 C43      0.8029  17.9623   1.7872   C.ar      1 RES1   0.0000
    80 H37      0.5628  17.1470   2.1613   H         1 RES1   0.0000
    81 C44      0.0308  18.5276   0.7735   C.ar      1 RES1   0.0000
    82 H38     -0.7356  18.0911   0.4803   H         1 RES1   0.0000
    83 C45      0.3917  19.7174   0.2072   C.ar      1 RES1   0.0000
    84 H39     -0.1283  20.0814  -0.4725   H         1 RES1   0.0000
    85 C46      1.5217  20.3822   0.6333   C.ar      1 RES1   0.0000
    86 H40      1.7685  21.1864   0.2363   H         1 RES1   0.0000
    87 C47      2.2910  19.8460   1.6545   C.ar      1 RES1   0.0000
    88 H41      3.0456  20.3010   1.9522   H         1 RES1   0.0000
    89 C48      1.9431  18.6375   2.2330   C.ar      1 RES1   0.0000
    90 Fe1      3.0683  15.7288   4.0554   Fe        1 RES1   2.0000
    91 N1       3.7537  16.3677   5.8065   N.2       1 RES1   0.0000
    92 N2       1.2214  15.6394   4.6213   N.1       1 RES1   0.0000
    93 N3       2.5852  15.2076   2.2767   N.1       1 RES1   0.0000
    94 P1       3.1175  13.4659   4.6674   P.3       1 RES1   0.0000
    95 P2       2.7966  17.9629   3.6890   P.3       1 RES1   0.0000
    96 S1       5.2118  15.6990   3.4293   S.3       1 RES1   0.0000
    97 C49      8.4306   3.2236   7.8861   C.3       2 RES2   0.0000
    98 F1       8.0265   2.1189   7.2674   F         2 RES2   0.0000
    99 F2       9.0260   3.9654   6.9852   F         2 RES2   0.0000
   100 F3       9.3687   2.8710   8.7721   F         2 RES2   0.0000
   101 O1       6.5641   3.1131   9.6297   O.2       2 RES2   0.0000
   102 O2       6.1685   4.3104   7.5741   O.3       2 RES2  -1.0000
   103 O3       7.6299   5.2231   9.2838   O.2       2 RES2   0.0000
   104 S2       7.0444   4.0667   8.6800   S.o2      2 RES2   0.0000
   105 C50     -1.9101   5.9818   9.7260   C.3       3 RES3   0.0000
   106 F4      -2.9575   5.6488  10.4646   F         3 RES3   0.0000
   107 F5      -1.8419   7.3234   9.8460   F         3 RES3   0.0000
   108 F6      -2.2166   5.8065   8.4491   F         3 RES3   0.0000
   109 O4       0.6272   5.9215   9.5358   O.3       3 RES3  -1.0000
   110 O5      -0.3783   5.3682  11.6289   O.2       3 RES3   0.0000
   111 O6      -0.5493   3.8731   9.7982   O.2       3 RES3   0.0000
   112 S3      -0.3837   5.2020  10.2341   S.o2      3 RES3   0.0000
   113 C51      8.5974   8.3484   7.0243   C.3       4 RES4   0.0000
   114 H42      7.6602   8.5528   7.0805   H         4 RES4   0.0000
   115 H43      9.0982   9.1641   6.9662   H         4 RES4   0.0000
   116 H44      8.8663   7.8633   7.8067   H         4 RES4   0.0000
   117 C52      8.8898   7.4043   5.6415   C.3       4 RES4   0.0000
   118 H45      9.7124   6.8910   5.6957   H         4 RES4   0.0000
   119 H46      8.1450   6.8301   5.4052   H         4 RES4   0.0000
   120 C53      9.4905   8.6594   3.2672   C.3       4 RES4   0.0000
   121 H47     10.3957   8.3114   3.2749   H         4 RES4   0.0000
   122 H48      8.9402   8.0090   2.8043   H         4 RES4   0.0000
   123 C54      9.4964   9.8123   2.5041   C.3       4 RES4   0.0000
   124 H49      8.6245   9.9537   2.1303   H         4 RES4   0.0000
   125 H50     10.1390   9.7231   1.7953   H         4 RES4   0.0000
   126 H51      9.7315  10.5605   3.0580   H         4 RES4   0.0000
   127 O7       9.0142   8.7182   4.7003   O.3       4 RES4   0.0000
@<TRIPOS>BOND
     1     1     2    1
     2     2     3    1
     3     4     2    1
     4     5     2    1
     5     6     7    1
     6     7     8    1
     7     9     7    1
     8    10     7    1
     9    11    12   ar
    10    12    13   ar
    11    13    14    1
    12    15    13   ar
    13    16    15    1
    14    17    15   ar
    15    18    17    1
    16    19    11   ar
    17    20    19    1
    18    21    22    1
    19    23    21    1
    20    24    21    1
    21    25    24   ar
    22    26    25   ar
    23    27    26    1
    24    28    26   ar
    25    29    28    1
    26    30    28   ar
    27    31    30    1
    28    32    24   ar
    29    33    32    1
    30    34    35   ar
    31    35    36    1
    32    37    35   ar
    33    38    37    1
    34    39    37   ar
    35    40    39    1
    36    41    39   ar
    37    42    41    1
    38    43    34   ar
    39    44    43    1
    40    45    46   ar
    41    46    47    1
    42    48    46   ar
    43    49    48    1
    44    50    48   ar
    45    51    50    1
    46    52    50   ar
    47    53    52    1
    48    54    45   ar
    49    55    54    1
    50    56    57    1
    51    58    56    1
    52    59    58   ar
    53    60    59    1
    54    61    59   ar
    55    62    61    1
    56    63    61   ar
    57    64    63    1
    58    65    63   ar
    59    66    65    1
    60    67    58   ar
    61    68    69   ar
    62    69    70    1
    63    71    69   ar
    64    72    71    1
    65    73    71   ar
    66    74    73    1
    67    75    73   ar
    68    76    75    1
    69    77    68   ar
    70    78    77    1
    71    79    80    1
    72    81    79   ar
    73    82    81    1
    74    83    81   ar
    75    84    83    1
    76    85    83   ar
    77    86    85    1
    78    87    85   ar
    79    88    87    1
    80    89    79   ar
    81    90    91    1
    82    91    11    1
    83    92     1    3
    84    93     6    3
    85    94    25    1
    86    95    67    1
    87    96    12    1
    88    17    19   ar
    89    21    96    1
    90    30    32   ar
    91    34    94    1
    92    41    43   ar
    93    45    94    1
    94    52    54   ar
    95    56    91    2
    96    65    67   ar
    97    68    95    1
    98    75    77   ar
    99    87    89   ar
   100    89    95    1
   101    90    92    1
   102    90    93    1
   103    90    94    1
   104    90    95    1
   105    90    96    1
   106    97    98    1
   107    99    97    1
   108   100    97    1
   109   101   104    2
   110   102   104    1
   111   103   104    2
   112   104    97    1
   113   105   106    1
   114   107   105    1
   115   108   105    1
   116   109   112    1
   117   110   112    2
   118   111   112    2
   119   112   105    1
   120   113   114    1
   121   115   113    1
   122   116   113    1
   123   117   113    1
   124   118   117    1
   125   119   117    1
   126   120   121    1
   127   122   120    1
   128   123   120    1
   129   124   123    1
   130   125   123    1
   131   126   123    1
   132   127   117    1
   133   120   127    1
@<TRIPOS>SUBSTRUCTURE
     1 RES1        1 GROUP             0 ****  ****    0  
     2 RES2       97 GROUP             0 ****  ****    0  
     3 RES3      105 GROUP             0 ****  ****    0  
     4 RES4      113 GROUP             0 ****  ****    0  
@<TRIPOS>CRYSIN
   13.7783   21.7519   19.6696   90.0000  100.0681   90.0000   231     1
