@<TRIPOS>MOLECULE
ZOFJOT
   132   144     2     0     0
SMALL
USER_CHARGES
****
Generated from the CSD

@<TRIPOS>ATOM
     1 Fe1      3.4519   0.0000   5.8348   Fe        1 RES1   2.0000
     2 N1       1.5882   0.0000   5.8348   N.ar      1 RES1   0.0000
     3 C1       0.9281  -0.0371   4.6678   C.ar      1 RES1   0.0000
     4 C2      -0.4557  -0.0659   4.6305   C.ar      1 RES1   0.0000
     5 H1      -0.9160  -0.1257   3.8253   H         1 RES1   0.0000
     6 C3      -1.1234   0.0000   5.8348   C.ar      1 RES1   0.0000
     7 H2      -2.0530   0.0000   5.8348   H         1 RES1   0.0000
     8 C4       1.8547  -0.0103   3.5242   C.2       1 RES1   0.0000
     9 C5       1.3217  -0.0185   2.1332   C.3       1 RES1   0.0000
    10 H3       1.0598   0.8717   1.8858   H         1 RES1   0.0000
    11 H4       0.5602  -0.5976   2.0842   H         1 RES1   0.0000
    12 H5       1.9985  -0.3297   1.5310   H         1 RES1   0.0000
    13 N2       3.0976   0.0350   3.8789   N.2       1 RES1   0.0000
    14 C6       4.1499   0.1360   2.8380   C.3       1 RES1   0.0000
    15 H6       3.7608   0.5049   2.0305   H         1 RES1   0.0000
    16 H7       4.8387   0.7460   3.1438   H         1 RES1   0.0000
    17 C7       4.7661  -1.1643   2.5253   C.2       1 RES1   0.0000
    18 S1       3.9833  -2.5656   2.2265   S.3       1 RES1   0.0000
    19 C8       5.2278  -3.4414   1.9068   C.2       1 RES1   0.0000
    20 H8       5.1567  -4.3481   1.7178   H         1 RES1   0.0000
    21 C9       6.3497  -2.8396   1.9208   C.2       1 RES1   0.0000
    22 H9       7.1446  -3.2992   1.7738   H         1 RES1   0.0000
    23 C10      6.3421  -1.3662   2.1845   C.2       1 RES1   0.0000
    24 H10      7.0371  -0.7460   2.1612   H         1 RES1   0.0000
    25 N3       5.3141   0.0000   5.8348   N.ar      1 RES1   0.0000
    26 C11      5.9894   1.1767   5.8394   C.ar      1 RES1   0.0000
    27 C12      7.3732   1.1849   5.8534   C.ar      1 RES1   0.0000
    28 H11      7.8334   1.9927   5.8744   H         1 RES1   0.0000
    29 C13      8.0651   0.0000   5.8348   C.ar      1 RES1   0.0000
    30 H12      8.9947   0.0000   5.8348   H         1 RES1   0.0000
    31 C14      5.0613   2.3018   5.9071   C.2       1 RES1   0.0000
    32 C15      5.5988   3.6969   6.0121   C.3       1 RES1   0.0000
    33 H13      6.2831   3.8329   5.3446   H         1 RES1   0.0000
    34 H14      5.9803   3.8329   6.8850   H         1 RES1   0.0000
    35 H15      4.8902   4.3254   5.8698   H         1 RES1   0.0000
    36 N4       3.8077   1.9288   5.9141   N.2       1 RES1   0.0000
    37 C16      2.7373   2.9530   6.0915   C.3       1 RES1   0.0000
    38 H16      3.1279   3.7608   6.4579   H         1 RES1   0.0000
    39 H17      2.0848   2.6233   6.7286   H         1 RES1   0.0000
    40 C17      2.0500   3.2786   4.8078   C.2       1 RES1   0.0000
    41 S2       2.9523   3.7278   3.4285   S.3       1 RES1   0.0000
    42 C18      1.5291   4.0740   2.5673   C.2       1 RES1   0.0000
    43 H18      1.5291   4.3707   1.6851   H         1 RES1   0.0000
    44 C19      0.4088   3.8762   3.2815   C.2       1 RES1   0.0000
    45 H19     -0.4239   4.0287   2.9010   H         1 RES1   0.0000
    46 C20      0.5238   3.4084   4.7005   C.2       1 RES1   0.0000
    47 H20     -0.1378   3.2435   5.3330   H         1 RES1   0.0000
    48 C2B     -0.4557   0.0659   7.0390   C.ar      1 RES1   0.0000
    49 C1B      0.9281   0.0371   7.0017   C.ar      1 RES1   0.0000
    50 C4B      1.8547   0.0103   8.1453   C.2       1 RES1   0.0000
    51 C5B      1.3217   0.0185   9.5363   C.3       1 RES1   0.0000
    52 H3B      1.0598  -0.8717   9.7837   H         1 RES1   0.0000
    53 H4B      0.5602   0.5976   9.5853   H         1 RES1   0.0000
    54 H5B      1.9985   0.3297  10.1385   H         1 RES1   0.0000
    55 N2B      3.0976  -0.0350   7.7906   N.2       1 RES1   0.0000
    56 C12B     7.3732  -1.1849   5.8161   C.ar      1 RES1   0.0000
    57 C11B     5.9894  -1.1767   5.8301   C.ar      1 RES1   0.0000
    58 C14B     5.0613  -2.3018   5.7624   C.2       1 RES1   0.0000
    59 C15B     5.5988  -3.6969   5.6574   C.3       1 RES1   0.0000
    60 H13B     6.2831  -3.8329   6.3249   H         1 RES1   0.0000
    61 H14B     5.9803  -3.8329   4.7845   H         1 RES1   0.0000
    62 H15B     4.8902  -4.3254   5.7997   H         1 RES1   0.0000
    63 N4B      3.8077  -1.9288   5.7554   N.2       1 RES1   0.0000
    64 C16B     2.7373  -2.9530   5.5780   C.3       1 RES1   0.0000
    65 H16B     3.1279  -3.7608   5.2116   H         1 RES1   0.0000
    66 H17B     2.0848  -2.6233   4.9409   H         1 RES1   0.0000
    67 C17B     2.0500  -3.2786   6.8617   C.2       1 RES1   0.0000
    68 S2B      2.9523  -3.7278   8.2410   S.3       1 RES1   0.0000
    69 C18B     1.5291  -4.0740   9.1022   C.2       1 RES1   0.0000
    70 H18B     1.5291  -4.3707   9.9844   H         1 RES1   0.0000
    71 C19B     0.4088  -3.8762   8.3880   C.2       1 RES1   0.0000
    72 H19B    -0.4239  -4.0287   8.7685   H         1 RES1   0.0000
    73 C20B     0.5238  -3.4084   6.9690   C.2       1 RES1   0.0000
    74 H20B    -0.1378  -3.2435   6.3365   H         1 RES1   0.0000
    75 H11B     7.8334  -1.9927   5.7951   H         1 RES1   0.0000
    76 C6B      4.1499  -0.1360   8.8315   C.3       1 RES1   0.0000
    77 H6B      3.7608  -0.5049   9.6390   H         1 RES1   0.0000
    78 H7B      4.8387  -0.7460   8.5257   H         1 RES1   0.0000
    79 C7B      4.7661   1.1643   9.1442   C.2       1 RES1   0.0000
    80 S1B      3.9833   2.5656   9.4430   S.3       1 RES1   0.0000
    81 C8B      5.2278   3.4414   9.7627   C.2       1 RES1   0.0000
    82 H8B      5.1567   4.3481   9.9517   H         1 RES1   0.0000
    83 C9B      6.3497   2.8396   9.7487   C.2       1 RES1   0.0000
    84 H9B      7.1446   3.2992   9.8957   H         1 RES1   0.0000
    85 C10B     6.3421   1.3662   9.4850   C.2       1 RES1   0.0000
    86 H10B     7.0371   0.7460   9.5083   H         1 RES1   0.0000
    87 H1B     -0.9160   0.1257   7.8442   H         1 RES1   0.0000
    88 B1       3.8501   1.9515  -1.9978   B         2 RES2  -1.0000
    89 C21      3.8471   0.2988  -2.0095   C.ar      2 RES2   0.0000
    90 C22      4.9780  -0.4060  -2.4506   C.ar      2 RES2   0.0000
    91 H21      5.6881   0.0742  -2.8123   H         2 RES2   0.0000
    92 C23      5.0855  -1.7784  -2.3712   C.ar      2 RES2   0.0000
    93 H22      5.8637  -2.2029  -2.6536   H         2 RES2   0.0000
    94 C24      4.0500  -2.5099  -1.8811   C.ar      2 RES2   0.0000
    95 H23      4.1135  -3.4352  -1.8274   H         2 RES2   0.0000
    96 C25      2.9084  -1.8711  -1.4657   C.ar      2 RES2   0.0000
    97 H24      2.1892  -2.3657  -1.1459   H         2 RES2   0.0000
    98 C26      2.8282  -0.4801  -1.5240   C.ar      2 RES2   0.0000
    99 H25      2.0530  -0.0639  -1.2230   H         2 RES2   0.0000
   100 C27      4.4845   2.4873  -3.4378   C.ar      2 RES2   0.0000
   101 C28      5.3187   3.6021  -3.5732   C.ar      2 RES2   0.0000
   102 H26      5.6457   4.0204  -2.8100   H         2 RES2   0.0000
   103 C29      5.6714   4.0946  -4.8288   C.ar      2 RES2   0.0000
   104 H27      6.2422   4.8262  -4.8825   H         2 RES2   0.0000
   105 C30      5.2006   3.5341  -5.9748   C.ar      2 RES2   0.0000
   106 H28      5.4171   3.8927  -6.8057   H         2 RES2   0.0000
   107 C31      4.3815   2.4069  -5.8698   C.ar      2 RES2   0.0000
   108 H29      4.0515   1.9927  -6.6353   H         2 RES2   0.0000
   109 C32      4.0696   1.9206  -4.6398   C.ar      2 RES2   0.0000
   110 H30      3.5428   1.1561  -4.5978   H         2 RES2   0.0000
   111 C33      4.7555   2.4852  -0.7328   C.ar      2 RES2   0.0000
   112 C34      5.7078   1.6918  -0.0770   C.ar      2 RES2   0.0000
   113 H31      5.8198   0.8119  -0.3524   H         2 RES2   0.0000
   114 C35      6.4890   2.1658   0.9592   C.ar      2 RES2   0.0000
   115 H32      7.1037   1.6053   1.3747   H         2 RES2   0.0000
   116 C36      6.3558   3.4640   1.3770   C.ar      2 RES2   0.0000
   117 H33      6.8826   3.7917   2.0678   H         2 RES2   0.0000
   118 C37      5.4534   4.2595   0.7749   C.ar      2 RES2   0.0000
   119 H34      5.3671   5.1435   1.0479   H         2 RES2   0.0000
   120 C38      4.6601   3.7855  -0.2334   C.ar      2 RES2   0.0000
   121 H35      4.0288   4.3584  -0.6045   H         2 RES2   0.0000
   122 C39      2.3300   2.5656  -1.8975   C.ar      2 RES2   0.0000
   123 C40      1.5942   3.1199  -2.9407   C.ar      2 RES2   0.0000
   124 H36      1.9909   3.1570  -3.7809   H         2 RES2   0.0000
   125 C41      0.3331   3.6124  -2.8100   C.ar      2 RES2   0.0000
   126 H37     -0.1075   3.9689  -3.5475   H         2 RES2   0.0000
   127 C42     -0.2922   3.5794  -1.5824   C.ar      2 RES2   0.0000
   128 H38     -1.1522   3.9195  -1.4844   H         2 RES2   0.0000
   129 C43      0.3497   3.0540  -0.5228   C.ar      2 RES2   0.0000
   130 H39     -0.0651   3.0189   0.3081   H         2 RES2   0.0000
   131 C44      1.6518   2.5553  -0.6862   C.ar      2 RES2   0.0000
   132 H40      2.0833   2.2008   0.0560   H         2 RES2   0.0000
@<TRIPOS>BOND
     1     1     2    1
     2     2     3   ar
     3     3     4   ar
     4     4     5    1
     5     6     4   ar
     6     7     6    1
     7     8     3    1
     8     9     8    1
     9    10     9    1
    10    11     9    1
    11    12     9    1
    12    13     1    1
    13    14    13    1
    14    15    14    1
    15    16    14    1
    16    17    14    1
    17    18    17    1
    18    19    18    1
    19    20    19    1
    20    21    19    2
    21    22    21    1
    22    23    17    2
    23    24    23    1
    24    25     1    1
    25    26    25   ar
    26    27    26   ar
    27    28    27    1
    28    29    27   ar
    29    30    29    1
    30    31    26    1
    31    32    31    1
    32    33    32    1
    33    34    32    1
    34    35    32    1
    35    36     1    1
    36    37    36    1
    37    38    37    1
    38    39    37    1
    39    40    37    1
    40    41    40    1
    41    42    41    1
    42    43    42    1
    43    44    42    2
    44    45    44    1
    45    46    40    2
    46    47    46    1
    47    48     6   ar
    48    49     2   ar
    49    50    49    1
    50    51    50    1
    51    52    51    1
    52    53    51    1
    53    54    51    1
    54    55     1    1
    55    56    29   ar
    56    57    25   ar
    57    58    57    1
    58    59    58    1
    59    60    59    1
    60    61    59    1
    61    62    59    1
    62    63     1    1
    63    64    63    1
    64    65    64    1
    65    66    64    1
    66    67    64    1
    67    68    67    1
    68    69    68    1
    69    70    69    1
    70    71    69    2
    71    72    71    1
    72    73    67    2
    73    74    73    1
    74    75    56    1
    75    76    55    1
    76    77    76    1
    77    78    76    1
    78    79    76    1
    79    80    79    1
    80    81    80    1
    81    82    81    1
    82    83    81    2
    83    84    83    1
    84    85    79    2
    85    86    85    1
    86    87    48    1
    87     8    13    2
    88    21    23    1
    89    31    36    2
    90    44    46    1
    91    48    49   ar
    92    50    55    2
    93    56    57   ar
    94    58    63    2
    95    71    73    1
    96    83    85    1
    97    88    89    1
    98    89    90   ar
    99    90    91    1
   100    92    90   ar
   101    93    92    1
   102    94    92   ar
   103    95    94    1
   104    96    94   ar
   105    97    96    1
   106    98    89   ar
   107    99    98    1
   108   100    88    1
   109   101   100   ar
   110   102   101    1
   111   103   101   ar
   112   104   103    1
   113   105   103   ar
   114   106   105    1
   115   107   105   ar
   116   108   107    1
   117   109   100   ar
   118   110   109    1
   119   111    88    1
   120   112   111   ar
   121   113   112    1
   122   114   112   ar
   123   115   114    1
   124   116   114   ar
   125   117   116    1
   126   118   116   ar
   127   119   118    1
   128   120   111   ar
   129   121   120    1
   130   122    88    1
   131   123   122   ar
   132   124   123    1
   133   125   123   ar
   134   126   125    1
   135   127   125   ar
   136   128   127    1
   137   129   127   ar
   138   130   129    1
   139   131   122   ar
   140   132   131    1
   141    96    98   ar
   142   107   109   ar
   143   118   120   ar
   144   129   131   ar
@<TRIPOS>SUBSTRUCTURE
     1 RES1        1 GROUP             0 ****  ****    0  
     2 RES2       88 GROUP             0 ****  ****    0  
@<TRIPOS>CRYSIN
   15.1400   20.6070   23.3390   90.0000   90.0000   90.0000    60     5
