@<TRIPOS>MOLECULE
ZOKHOA
    94   104     2     0     0
SMALL
USER_CHARGES
****
Generated from the CSD

@<TRIPOS>ATOM
     1 Fe1      4.5077   2.5385  23.7721   Fe        1 RES1   2.0000
     2 N1       4.5409   3.2276  21.7141   N.ar      1 RES1   0.0000
     3 C1       3.6684   2.7369  20.8389   C.ar      1 RES1   0.0000
     4 C2       3.3357   3.3510  19.6431   C.ar      1 RES1   0.0000
     5 H1       2.7172   2.9617  19.0356   H         1 RES1   0.0000
     6 C3       3.9561   4.5713  19.3787   C.ar      1 RES1   0.0000
     7 C4       4.8989   5.1026  20.2814   C.ar      1 RES1   0.0000
     8 H2       5.3341   5.9316  20.1201   H         1 RES1   0.0000
     9 C5       5.1590   4.3547  21.4111   C.ar      1 RES1   0.0000
    10 N2       3.1217   1.5118  21.2802   N.pl3     1 RES1   0.0000
    11 N3       3.4125   1.1032  22.5496   N.2       1 RES1   0.0000
    12 C6       2.9033  -0.1075  22.6450   C.2       1 RES1   0.0000
    13 H3       2.9418  -0.6447  23.4279   H         1 RES1   0.0000
    14 C7       2.2921  -0.5058  21.4409   C.2       1 RES1   0.0000
    15 H4       1.8572  -1.3303  21.2585   H         1 RES1   0.0000
    16 C8       2.4604   0.5488  20.5914   C.2       1 RES1   0.0000
    17 H5       2.1700   0.5991  19.6882   H         1 RES1   0.0000
    18 N4       6.1289   4.7243  22.3699   N.pl3     1 RES1   0.0000
    19 N5       6.1427   4.0154  23.5461   N.2       1 RES1   0.0000
    20 C9       7.2296   4.4646  24.1788   C.2       1 RES1   0.0000
    21 H6       7.5042   4.1726  25.0403   H         1 RES1   0.0000
    22 C10      7.9145   5.4149  23.4215   C.2       1 RES1   0.0000
    23 H7       8.7158   5.8674  23.6585   H         1 RES1   0.0000
    24 C11      7.1954   5.5598  22.2681   C.2       1 RES1   0.0000
    25 H8       7.4019   6.1327  21.5386   H         1 RES1   0.0000
    26 S1       3.6552   5.5901  17.9815   S.3       1 RES1   0.0000
    27 C12      2.5001   4.6988  16.9755   C.ar      1 RES1   0.0000
    28 C13      2.9743   4.0353  15.8341   C.ar      1 RES1   0.0000
    29 H9       3.9074   4.0005  15.6561   H         1 RES1   0.0000
    30 C14      2.0849   3.4355  14.9742   C.ar      1 RES1   0.0000
    31 C15      0.6982   3.4761  15.2484   C.ar      1 RES1   0.0000
    32 C16      0.2547   4.1412  16.3790   C.ar      1 RES1   0.0000
    33 H10     -0.6759   4.1709  16.5686   H         1 RES1   0.0000
    34 C17      1.1486   4.7681  17.2414   C.ar      1 RES1   0.0000
    35 H11      0.8314   5.2376  18.0041   H         1 RES1   0.0000
    36 O1       2.4081   2.7481  13.8376   O.3       1 RES1   0.0000
    37 C18      3.7814   2.7441  13.4379   C.3       1 RES1   0.0000
    38 H12      4.0648   3.6601  13.2360   H         1 RES1   0.0000
    39 H13      3.8872   2.1856  12.6397   H         1 RES1   0.0000
    40 H14      4.3317   2.3841  14.1642   H         1 RES1   0.0000
    41 O2      -0.0807   2.8460  14.3311   O.3       1 RES1   0.0000
    42 C19     -1.4934   2.8906  14.5197   C.3       1 RES1   0.0000
    43 H15     -1.7221   2.4775  15.3784   H         1 RES1   0.0000
    44 H16     -1.9358   2.4023  13.7942   H         1 RES1   0.0000
    45 H17     -1.7946   3.8236  14.5160   H         1 RES1   0.0000
    46 N1A      4.4744   3.2276  25.8301   N.ar      1 RES1   0.0000
    47 C1A      5.3470   2.7369  26.7053   C.ar      1 RES1   0.0000
    48 C2A      5.6796   3.3510  27.9012   C.ar      1 RES1   0.0000
    49 H1A      6.2982   2.9617  28.5086   H         1 RES1   0.0000
    50 C3A      5.0593   4.5713  28.1655   C.ar      1 RES1   0.0000
    51 C4A      4.1165   5.1026  27.2628   C.ar      1 RES1   0.0000
    52 H2A      3.6812   5.9316  27.4241   H         1 RES1   0.0000
    53 C5A      3.8563   4.3547  26.1332   C.ar      1 RES1   0.0000
    54 N2A      5.8937   1.5118  26.2641   N.pl3     1 RES1   0.0000
    55 N3A      5.6029   1.1032  24.9946   N.2       1 RES1   0.0000
    56 C6A      6.1121  -0.1075  24.8992   C.2       1 RES1   0.0000
    57 H3A      6.0736  -0.6447  24.1163   H         1 RES1   0.0000
    58 C7A      6.7232  -0.5058  26.1034   C.2       1 RES1   0.0000
    59 H4A      7.1582  -1.3303  26.2857   H         1 RES1   0.0000
    60 C8A      6.5549   0.5488  26.9528   C.2       1 RES1   0.0000
    61 H5A      6.8454   0.5991  27.8560   H         1 RES1   0.0000
    62 N4A      2.8864   4.7243  25.1743   N.pl3     1 RES1   0.0000
    63 N5A      2.8727   4.0154  23.9981   N.2       1 RES1   0.0000
    64 C9A      1.7857   4.4646  23.3654   C.2       1 RES1   0.0000
    65 H6A      1.5112   4.1726  22.5039   H         1 RES1   0.0000
    66 C10A     1.1009   5.4149  24.1227   C.2       1 RES1   0.0000
    67 H7A      0.2996   5.8674  23.8857   H         1 RES1   0.0000
    68 C11A     1.8200   5.5598  25.2761   C.2       1 RES1   0.0000
    69 H8A      1.6135   6.1327  26.0056   H         1 RES1   0.0000
    70 S1A      5.3601   5.5901  29.5627   S.3       1 RES1   0.0000
    71 C12A     6.5152   4.6988  30.5687   C.ar      1 RES1   0.0000
    72 C13A     6.0410   4.0353  31.7101   C.ar      1 RES1   0.0000
    73 H9A      5.1080   4.0005  31.8881   H         1 RES1   0.0000
    74 C14A     6.9304   3.4355  32.5700   C.ar      1 RES1   0.0000
    75 C15A     8.3172   3.4761  32.2958   C.ar      1 RES1   0.0000
    76 C16A     8.7607   4.1412  31.1652   C.ar      1 RES1   0.0000
    77 H10A     9.6912   4.1709  30.9756   H         1 RES1   0.0000
    78 C17A     7.8668   4.7681  30.3028   C.ar      1 RES1   0.0000
    79 H11A     8.1840   5.2376  29.5401   H         1 RES1   0.0000
    80 O1A      6.6073   2.7481  33.7066   O.3       1 RES1   0.0000
    81 C18A     5.2340   2.7441  34.1063   C.3       1 RES1   0.0000
    82 H12A     4.9506   3.6601  34.3082   H         1 RES1   0.0000
    83 H13A     5.1281   2.1856  34.9045   H         1 RES1   0.0000
    84 H14A     4.6836   2.3841  33.3800   H         1 RES1   0.0000
    85 O2A      9.0960   2.8460  33.2131   O.3       1 RES1   0.0000
    86 C19A    10.5087   2.8906  33.0245   C.3       1 RES1   0.0000
    87 H15A    10.7375   2.4775  32.1658   H         1 RES1   0.0000
    88 H16A    10.9511   2.4023  33.7501   H         1 RES1   0.0000
    89 H17A    10.8100   3.8236  33.0282   H         1 RES1   0.0000
    90 Cl1      7.0475   0.9895  20.6152   Cl        2 RES2   0.0000
    91 O3       6.8681   1.2649  22.0035   O.2       2 RES2   0.0000
    92 O4       8.2743   0.2382  20.4510   O.3       2 RES2  -1.0000
    93 O5       5.9409   0.2031  20.1597   O.2       2 RES2   0.0000
    94 O6       7.0973   2.1921  19.8583   O.2       2 RES2   0.0000
@<TRIPOS>BOND
     1     1     2    1
     2     2     3   ar
     3     3     4   ar
     4     4     5    1
     5     6     4   ar
     6     7     6   ar
     7     8     7    1
     8     9     2   ar
     9    10     3    1
    10    11     1    1
    11    12    11    2
    12    13    12    1
    13    14    12    1
    14    15    14    1
    15    16    10    1
    16    17    16    1
    17    18     9    1
    18    19     1    1
    19    20    19    2
    20    21    20    1
    21    22    20    1
    22    23    22    1
    23    24    18    1
    24    25    24    1
    25    26     6    1
    26    27    26    1
    27    28    27   ar
    28    29    28    1
    29    30    28   ar
    30    31    30   ar
    31    32    31   ar
    32    33    32    1
    33    34    27   ar
    34    35    34    1
    35    36    30    1
    36    37    36    1
    37    38    37    1
    38    39    37    1
    39    40    37    1
    40    41    31    1
    41    42    41    1
    42    43    42    1
    43    44    42    1
    44    45    42    1
    45    46     1    1
    46    47    46   ar
    47    48    47   ar
    48    49    48    1
    49    50    48   ar
    50    51    50   ar
    51    52    51    1
    52    53    46   ar
    53    54    47    1
    54    55     1    1
    55    56    55    2
    56    57    56    1
    57    58    56    1
    58    59    58    1
    59    60    54    1
    60    61    60    1
    61    62    53    1
    62    63     1    1
    63    64    63    2
    64    65    64    1
    65    66    64    1
    66    67    66    1
    67    68    62    1
    68    69    68    1
    69    70    50    1
    70    71    70    1
    71    72    71   ar
    72    73    72    1
    73    74    72   ar
    74    75    74   ar
    75    76    75   ar
    76    77    76    1
    77    78    71   ar
    78    79    78    1
    79    80    74    1
    80    81    80    1
    81    82    81    1
    82    83    81    1
    83    84    81    1
    84    85    75    1
    85    86    85    1
    86    87    86    1
    87    88    86    1
    88    89    86    1
    89     7     9   ar
    90    10    11    1
    91    14    16    2
    92    18    19    1
    93    22    24    2
    94    32    34   ar
    95    51    53   ar
    96    54    55    1
    97    58    60    2
    98    62    63    1
    99    66    68    2
   100    76    78   ar
   101    90    91    2
   102    92    90    1
   103    93    90    2
   104    94    90    2
@<TRIPOS>SUBSTRUCTURE
     1 RES1        1 GROUP             0 ****  ****    0  
     2 RES2       90 GROUP             0 ****  ****    0  
@<TRIPOS>CRYSIN
   16.1718    7.9654   32.0532   90.0000   98.5600   90.0000    15     1
