@<TRIPOS>MOLECULE
ZOKHIU
    94   104     2     0     0
SMALL
USER_CHARGES
****
Generated from the CSD

@<TRIPOS>ATOM
     1 Fe1      4.1940   5.3657  23.8206   Fe        1 RES1   2.0000
     2 N1       4.3126   4.6897  21.7692   N.ar      1 RES1   0.0000
     3 C1       3.4477   5.1799  20.8754   C.ar      1 RES1   0.0000
     4 C2       3.1319   4.5395  19.6844   C.ar      1 RES1   0.0000
     5 H1       2.5234   4.9208  19.0625   H         1 RES1   0.0000
     6 C3       3.7429   3.3208  19.4427   C.ar      1 RES1   0.0000
     7 C4       4.6756   2.7854  20.3647   C.ar      1 RES1   0.0000
     8 H2       5.1033   1.9487  20.2235   H         1 RES1   0.0000
     9 C5       4.9252   3.5632  21.4878   C.ar      1 RES1   0.0000
    10 N2       2.8949   6.3787  21.3045   N.pl3     1 RES1   0.0000
    11 N3       3.1361   6.8038  22.5889   N.2       1 RES1   0.0000
    12 C6       2.5965   7.9875  22.6772   C.2       1 RES1   0.0000
    13 H3       2.5900   8.5163  23.4653   H         1 RES1   0.0000
    14 C7       2.0239   8.3847  21.4449   C.2       1 RES1   0.0000
    15 H4       1.5855   9.2049  21.2486   H         1 RES1   0.0000
    16 C8       2.2330   7.3456  20.6159   C.2       1 RES1   0.0000
    17 H5       1.9653   7.2962  19.7063   H         1 RES1   0.0000
    18 N4       5.8733   3.1929  22.4736   N.pl3     1 RES1   0.0000
    19 N5       5.8496   3.9000  23.6377   N.2       1 RES1   0.0000
    20 C9       6.9126   3.4599  24.3097   C.2       1 RES1   0.0000
    21 H6       7.1540   3.7563  25.1791   H         1 RES1   0.0000
    22 C10      7.6366   2.5041  23.5761   C.2       1 RES1   0.0000
    23 H7       8.4349   2.0585  23.8322   H         1 RES1   0.0000
    24 C11      6.9332   2.3540  22.3977   C.2       1 RES1   0.0000
    25 H8       7.1496   1.7750  21.6778   H         1 RES1   0.0000
    26 S1       3.4273   2.2952  18.0525   S.3       1 RES1   0.0000
    27 C12      2.2809   3.2231  17.0492   C.ar      1 RES1   0.0000
    28 C13      2.7826   3.8293  15.8804   C.ar      1 RES1   0.0000
    29 H9       3.7119   3.8104  15.6867   H         1 RES1   0.0000
    30 C14      1.9001   4.4490  15.0260   C.ar      1 RES1   0.0000
    31 C15      0.5408   4.4974  15.3246   C.ar      1 RES1   0.0000
    32 C16      0.0546   3.9064  16.4870   C.ar      1 RES1   0.0000
    33 H10     -0.8701   3.9460  16.6961   H         1 RES1   0.0000
    34 C17      0.9559   3.2478  17.3446   C.ar      1 RES1   0.0000
    35 H11      0.6358   2.8212  18.1326   H         1 RES1   0.0000
    36 O1       2.2439   5.0798  13.8601   O.3       1 RES1   0.0000
    37 C18      3.5989   4.9956  13.4285   C.3       1 RES1   0.0000
    38 H12      4.1923   5.2642  14.1613   H         1 RES1   0.0000
    39 H13      3.7356   5.5908  12.6627   H         1 RES1   0.0000
    40 H14      3.8011   4.0733  13.1664   H         1 RES1   0.0000
    41 O2      -0.2333   5.1505  14.4058   O.3       1 RES1   0.0000
    42 C19     -1.6401   5.1322  14.6004   C.3       1 RES1   0.0000
    43 H15     -1.9654   4.2092  14.5446   H         1 RES1   0.0000
    44 H16     -2.0727   5.6723  13.9052   H         1 RES1   0.0000
    45 H17     -1.8538   5.5019  15.4813   H         1 RES1   0.0000
    46 N1A      4.0755   4.6897  25.8720   N.ar      1 RES1   0.0000
    47 C1A      4.9404   5.1799  26.7658   C.ar      1 RES1   0.0000
    48 C2A      5.2562   4.5395  27.9568   C.ar      1 RES1   0.0000
    49 H1A      5.8647   4.9208  28.5787   H         1 RES1   0.0000
    50 C3A      4.6452   3.3208  28.1985   C.ar      1 RES1   0.0000
    51 C4A      3.7125   2.7854  27.2765   C.ar      1 RES1   0.0000
    52 H2A      3.2847   1.9487  27.4177   H         1 RES1   0.0000
    53 C5A      3.4629   3.5632  26.1534   C.ar      1 RES1   0.0000
    54 N2A      5.4932   6.3787  26.3367   N.pl3     1 RES1   0.0000
    55 N3A      5.2520   6.8038  25.0523   N.2       1 RES1   0.0000
    56 C6A      5.7916   7.9875  24.9640   C.2       1 RES1   0.0000
    57 H3A      5.7981   8.5163  24.1759   H         1 RES1   0.0000
    58 C7A      6.3642   8.3847  26.1963   C.2       1 RES1   0.0000
    59 H4A      6.8026   9.2049  26.3927   H         1 RES1   0.0000
    60 C8A      6.1551   7.3456  27.0253   C.2       1 RES1   0.0000
    61 H5A      6.4227   7.2962  27.9349   H         1 RES1   0.0000
    62 N4A      2.5148   3.1929  25.1676   N.pl3     1 RES1   0.0000
    63 N5A      2.5385   3.9000  24.0036   N.2       1 RES1   0.0000
    64 C9A      1.4755   3.4599  23.3315   C.2       1 RES1   0.0000
    65 H6A      1.2340   3.7563  22.4622   H         1 RES1   0.0000
    66 C10A     0.7515   2.5041  24.0652   C.2       1 RES1   0.0000
    67 H7A     -0.0468   2.0585  23.8090   H         1 RES1   0.0000
    68 C11A     1.4549   2.3540  25.2435   C.2       1 RES1   0.0000
    69 H8A      1.2385   1.7750  25.9634   H         1 RES1   0.0000
    70 S1A      4.9608   2.2952  29.5887   S.3       1 RES1   0.0000
    71 C12A     6.1072   3.2231  30.5920   C.ar      1 RES1   0.0000
    72 C13A     5.6055   3.8293  31.7608   C.ar      1 RES1   0.0000
    73 H9A      4.6762   3.8104  31.9546   H         1 RES1   0.0000
    74 C14A     6.4880   4.4490  32.6152   C.ar      1 RES1   0.0000
    75 C15A     7.8473   4.4974  32.3166   C.ar      1 RES1   0.0000
    76 C16A     8.3335   3.9064  31.1542   C.ar      1 RES1   0.0000
    77 H10A     9.2582   3.9460  30.9451   H         1 RES1   0.0000
    78 C17A     7.4322   3.2478  30.2966   C.ar      1 RES1   0.0000
    79 H11A     7.7523   2.8212  29.5086   H         1 RES1   0.0000
    80 O1A      6.1442   5.0798  33.7811   O.3       1 RES1   0.0000
    81 C18A     4.7892   4.9956  34.2127   C.3       1 RES1   0.0000
    82 H12A     4.1958   5.2642  33.4800   H         1 RES1   0.0000
    83 H13A     4.6525   5.5908  34.9786   H         1 RES1   0.0000
    84 H14A     4.5870   4.0733  34.4748   H         1 RES1   0.0000
    85 O2A      8.6214   5.1505  33.2355   O.3       1 RES1   0.0000
    86 C19A    10.0282   5.1322  33.0408   C.3       1 RES1   0.0000
    87 H15A    10.3535   4.2092  33.0966   H         1 RES1   0.0000
    88 H16A    10.4608   5.6723  33.7360   H         1 RES1   0.0000
    89 H17A    10.2419   5.5019  32.1599   H         1 RES1   0.0000
    90 B1       6.7438   7.0214  20.6318   B         2 RES2  -1.0000
    91 F1       6.4417   6.8554  21.9582   F         2 RES2   0.0000
    92 F2       7.9262   7.7229  20.5334   F         2 RES2   0.0000
    93 F3       5.7632   7.7444  20.0665   F         2 RES2   0.0000
    94 F4       6.8069   5.8353  19.9712   F         2 RES2   0.0000
@<TRIPOS>BOND
     1     1     2    1
     2     2     3   ar
     3     3     4   ar
     4     4     5    1
     5     6     4   ar
     6     7     6   ar
     7     8     7    1
     8     9     2   ar
     9    10     3    1
    10    11     1    1
    11    12    11    2
    12    13    12    1
    13    14    12    1
    14    15    14    1
    15    16    10    1
    16    17    16    1
    17    18     9    1
    18    19     1    1
    19    20    19    2
    20    21    20    1
    21    22    20    1
    22    23    22    1
    23    24    18    1
    24    25    24    1
    25    26     6    1
    26    27    26    1
    27    28    27   ar
    28    29    28    1
    29    30    28   ar
    30    31    30   ar
    31    32    31   ar
    32    33    32    1
    33    34    27   ar
    34    35    34    1
    35    36    30    1
    36    37    36    1
    37    38    37    1
    38    39    37    1
    39    40    37    1
    40    41    31    1
    41    42    41    1
    42    43    42    1
    43    44    42    1
    44    45    42    1
    45    46     1    1
    46    47    46   ar
    47    48    47   ar
    48    49    48    1
    49    50    48   ar
    50    51    50   ar
    51    52    51    1
    52    53    46   ar
    53    54    47    1
    54    55     1    1
    55    56    55    2
    56    57    56    1
    57    58    56    1
    58    59    58    1
    59    60    54    1
    60    61    60    1
    61    62    53    1
    62    63     1    1
    63    64    63    2
    64    65    64    1
    65    66    64    1
    66    67    66    1
    67    68    62    1
    68    69    68    1
    69    70    50    1
    70    71    70    1
    71    72    71   ar
    72    73    72    1
    73    74    72   ar
    74    75    74   ar
    75    76    75   ar
    76    77    76    1
    77    78    71   ar
    78    79    78    1
    79    80    74    1
    80    81    80    1
    81    82    81    1
    82    83    81    1
    83    84    81    1
    84    85    75    1
    85    86    85    1
    86    87    86    1
    87    88    86    1
    88    89    86    1
    89     7     9   ar
    90    10    11    1
    91    14    16    2
    92    18    19    1
    93    22    24    2
    94    32    34   ar
    95    51    53   ar
    96    54    55    1
    97    58    60    2
    98    62    63    1
    99    66    68    2
   100    76    78   ar
   101    90    91    1
   102    92    90    1
   103    93    90    1
   104    94    90    1
@<TRIPOS>SUBSTRUCTURE
     1 RES1        1 GROUP             0 ****  ****    0  
     2 RES2       90 GROUP             0 ****  ****    0  
@<TRIPOS>CRYSIN
   16.0676    7.9446   32.1708   90.0000   99.1570   90.0000    15     1
