@<TRIPOS>MOLECULE
ZOKTAW
   110   118     3     0     0
SMALL
USER_CHARGES
****
Generated from the CSD

@<TRIPOS>ATOM
     1 C1      12.4482   3.8058   4.3018   C.3       1 RES1   0.0000
     2 H1      12.6301   3.1396   3.6805   H         1 RES1   0.0000
     3 H2      13.1724   4.4526   4.2710   H         1 RES1   0.0000
     4 C2      11.2073   4.5614   3.8141   C.3       1 RES1   0.0000
     5 H3      10.9906   5.3030   4.4192   H         1 RES1   0.0000
     6 H4      11.3787   4.9154   2.9395   H         1 RES1   0.0000
     7 C3       9.4929   3.4357   2.6341   C.2       1 RES1   0.0000
     8 H5       9.8208   3.7550   1.8248   H         1 RES1   0.0000
     9 C4       8.3059   2.5950   2.6920   C.2       1 RES1   0.0000
    10 C5       7.3242   2.1771   1.8369   C.2       1 RES1   0.0000
    11 H6       7.1983   2.3014   0.9002   H         1 RES1   0.0000
    12 C6       5.2069   0.8922   2.2618   C.ar      1 RES1   0.0000
    13 C7       4.8654  -0.3372   2.7966   C.ar      1 RES1   0.0000
    14 H7       5.4500  -0.7970   3.4018   H         1 RES1   0.0000
    15 C8       3.6381  -0.8973   2.4516   C.ar      1 RES1   0.0000
    16 H8       3.3480  -1.7224   2.8356   H         1 RES1   0.0000
    17 C9       2.7823  -0.2316   1.5896   C.ar      1 RES1   0.0000
    18 H9       1.9787  -0.6347   1.3735   H         1 RES1   0.0000
    19 C10      3.1399   0.9899   1.0581   C.ar      1 RES1   0.0000
    20 H10      2.5463   1.4560   0.4689   H         1 RES1   0.0000
    21 C11      4.3616   1.5751   1.3990   C.ar      1 RES1   0.0000
    22 H11      4.6375   2.3838   1.0042   H         1 RES1   0.0000
    23 C12     12.4769   1.7794   5.7125   C.3       1 RES1   0.0000
    24 H12     12.5703   1.5916   6.6708   H         1 RES1   0.0000
    25 H13     13.3012   1.4632   5.2398   H         1 RES1   0.0000
    26 C13     11.3065   0.9816   5.1294   C.3       1 RES1   0.0000
    27 H14     11.2227   1.1531   4.1626   H         1 RES1   0.0000
    28 H15     11.4422   0.0485   5.2575   H         1 RES1   0.0000
    29 C14      9.5673   0.6257   6.6857   C.2       1 RES1   0.0000
    30 H16      9.9677  -0.2277   6.9075   H         1 RES1   0.0000
    31 C15      8.3558   1.1219   7.3112   C.2       1 RES1   0.0000
    32 C16      7.4876   0.7612   8.3014   C.2       1 RES1   0.0000
    33 H17      7.4304   0.0388   8.8716   H         1 RES1   0.0000
    34 C17      5.3801   1.8404   9.1240   C.ar      1 RES1   0.0000
    35 C18      4.9800   3.0645   9.6261   C.ar      1 RES1   0.0000
    36 H18      5.4989   3.8567   9.4887   H         1 RES1   0.0000
    37 C19      3.7685   3.1244  10.3164   C.ar      1 RES1   0.0000
    38 H19      3.4368   3.9439  10.6300   H         1 RES1   0.0000
    39 C20      3.0195   1.9824  10.5106   C.ar      1 RES1   0.0000
    40 H20      2.2416   2.0567  10.9861   H         1 RES1   0.0000
    41 C21      3.4530   0.7711  10.0220   C.ar      1 RES1   0.0000
    42 H21      2.9199   0.0121  10.1191   H         1 RES1   0.0000
    43 C22      4.6420   0.6882   9.3042   C.ar      1 RES1   0.0000
    44 H22      4.9657  -0.1599   8.9711   H         1 RES1   0.0000
    45 C23     12.2955   4.0084   6.7733   C.3       1 RES1   0.0000
    46 H23     12.4342   4.9541   6.4784   H         1 RES1   0.0000
    47 H24     13.0436   3.8034   7.3897   H         1 RES1   0.0000
    48 C24     10.9864   3.9354   7.5598   C.3       1 RES1   0.0000
    49 H25     10.8673   3.0185   7.8874   H         1 RES1   0.0000
    50 H26     11.0541   4.5689   8.3231   H         1 RES1   0.0000
    51 C25      9.3186   5.4321   6.8002   C.2       1 RES1   0.0000
    52 H27      9.6177   6.1072   7.4007   H         1 RES1   0.0000
    53 C26      8.2060   5.6814   5.9069   C.2       1 RES1   0.0000
    54 C27      7.3501   6.6981   5.5689   C.2       1 RES1   0.0000
    55 H28      7.2672   7.5753   5.8503   H         1 RES1   0.0000
    56 C28      5.4676   6.7393   3.8775   C.ar      1 RES1   0.0000
    57 C29      5.1667   6.2335   2.6208   C.ar      1 RES1   0.0000
    58 H29      5.6748   5.5379   2.2118   H         1 RES1   0.0000
    59 C30      4.0333   6.6959   1.9705   C.ar      1 RES1   0.0000
    60 H30      3.8086   6.3689   1.1435   H         1 RES1   0.0000
    61 C31      3.2422   7.6729   2.5507   C.ar      1 RES1   0.0000
    62 H31      2.5137   7.9363   2.0968   H         1 RES1   0.0000
    63 C32      3.5816   8.1928   3.7871   C.ar      1 RES1   0.0000
    64 H32      3.0161   8.8811   4.1693   H         1 RES1   0.0000
    65 C33      4.6939   7.7212   4.4754   C.ar      1 RES1   0.0000
    66 H33      4.9149   8.0671   5.3460   H         1 RES1   0.0000
    67 Fe1      8.9961   3.0399   5.3654   Fe        1 RES1   2.0000
    68 N1      12.2803   3.1917   5.5886   N.3       1 RES1   0.0000
    69 N2      10.0299   3.6772   3.7782   N.2       1 RES1   0.0000
    70 N3       7.9758   2.1721   3.9463   N.2       1 RES1   0.0000
    71 N4       6.8510   1.4923   3.9275   N.2       1 RES1   0.0000
    72 N5       6.4558   1.5032   2.6283   N.pl3     1 RES1   0.0000
    73 N6      10.0544   1.3981   5.7777   N.2       1 RES1   0.0000
    74 N7       7.9192   2.3121   6.8002   N.2       1 RES1   0.0000
    75 N8       6.8309   2.7125   7.4098   N.2       1 RES1   0.0000
    76 N9       6.5755   1.7556   8.3315   N.pl3     1 RES1   0.0000
    77 N10      9.8511   4.2680   6.6850   N.2       1 RES1   0.0000
    78 N11      7.8855   4.5973   5.1396   N.2       1 RES1   0.0000
    79 N12      6.8883   4.8725   4.3352   N.2       1 RES1   0.0000
    80 N13      6.5646   6.1637   4.6017   N.pl3     1 RES1   0.0000
    81 C34      8.9893  10.6994   8.6871   C.3       2 RES2   0.0000
    82 C35      5.3105   7.2216   9.0138   C.3       2 RES2   0.0000
    83 F1      10.2751  10.6851   8.3439   F         2 RES2   0.0000
    84 F2       8.2925  11.1260   7.6580   F         2 RES2   0.0000
    85 F3       8.8469  11.5623   9.6851   F         2 RES2   0.0000
    86 F4       6.2897   6.4207   8.6203   F         2 RES2   0.0000
    87 F5       4.2151   6.9120   8.3268   F         2 RES2   0.0000
    88 F6       5.0742   6.9937  10.2905   F         2 RES2   0.0000
    89 N14      6.9848   9.2168   9.6528   N.2       2 RES2  -1.0000
    90 O1       8.6976   8.2161   8.0355   O.2       2 RES2   0.0000
    91 O2       9.2753   8.7825  10.3549   O.2       2 RES2   0.0000
    92 O3       5.9589   9.0819   7.3185   O.2       2 RES2   0.0000
    93 O4       4.6191   9.6866   9.2983   O.2       2 RES2   0.0000
    94 S1       8.4833   9.0194   9.1945   S.o2      2 RES2   0.0000
    95 S2       5.7195   8.9872   8.7243   S.o2      2 RES2   0.0000
    96 C36      1.3191   9.0502   6.7717   C.3       3 RES3   0.0000
    97 C37     -0.5820   7.1005  11.1091   C.3       3 RES3   0.0000
    98 F7       1.0976  10.1326   6.0197   F         3 RES3   0.0000
    99 F8       2.5529   9.1270   7.2048   F         3 RES3   0.0000
   100 F9       1.2055   7.9944   5.9810   F         3 RES3   0.0000
   101 F10     -0.3526   6.8561  12.3904   F         3 RES3   0.0000
   102 F11     -1.3506   8.1524  10.9943   F         3 RES3   0.0000
   103 F12     -1.2579   6.0680  10.6181   F         3 RES3   0.0000
   104 N15      0.4728   7.6039   8.7597   N.2       3 RES3  -1.0000
   105 O5       0.3823  10.1655   8.9240   O.2       3 RES3   0.0000
   106 O6      -1.1527   8.9443   7.4693   O.2       3 RES3   0.0000
   107 O7       1.6101   8.4184  10.8901   O.2       3 RES3   0.0000
   108 O8       1.6150   6.0651  10.2748   O.2       3 RES3   0.0000
   109 S3       0.1079   9.0000   8.1426   S.o2      3 RES3   0.0000
   110 S4       0.9830   7.3430  10.2263   S.o2      3 RES3   0.0000
@<TRIPOS>BOND
     1     1     2    1
     2     3     1    1
     3     4     1    1
     4     5     4    1
     5     6     4    1
     6     7     8    1
     7     9     7    1
     8    10     9    2
     9    11    10    1
    10    12    13   ar
    11    13    14    1
    12    15    13   ar
    13    16    15    1
    14    17    15   ar
    15    18    17    1
    16    19    17   ar
    17    20    19    1
    18    21    12   ar
    19    22    21    1
    20    23    24    1
    21    25    23    1
    22    26    23    1
    23    27    26    1
    24    28    26    1
    25    29    30    1
    26    31    29    1
    27    32    31    2
    28    33    32    1
    29    34    35   ar
    30    35    36    1
    31    37    35   ar
    32    38    37    1
    33    39    37   ar
    34    40    39    1
    35    41    39   ar
    36    42    41    1
    37    43    34   ar
    38    44    43    1
    39    45    46    1
    40    47    45    1
    41    48    45    1
    42    49    48    1
    43    50    48    1
    44    51    52    1
    45    53    51    1
    46    54    53    2
    47    55    54    1
    48    56    57   ar
    49    57    58    1
    50    59    57   ar
    51    60    59    1
    52    61    59   ar
    53    62    61    1
    54    63    61   ar
    55    64    63    1
    56    65    56   ar
    57    66    65    1
    58    67    69    1
    59    68     1    1
    60    69     4    1
    61    70     9    1
    62    71    70    2
    63    72    10    1
    64    73    26    1
    65    74    31    1
    66    75    74    2
    67    76    32    1
    68    77    48    1
    69    78    53    1
    70    79    78    2
    71    80    54    1
    72     7    69    2
    73    12    72    1
    74    19    21   ar
    75    23    68    1
    76    29    73    2
    77    34    76    1
    78    41    43   ar
    79    45    68    1
    80    51    77    2
    81    56    80    1
    82    63    65   ar
    83    67    70    1
    84    67    73    1
    85    67    74    1
    86    67    77    1
    87    67    78    1
    88    71    72    1
    89    75    76    1
    90    79    80    1
    91    81    83    1
    92    82    86    1
    93    84    81    1
    94    85    81    1
    95    87    82    1
    96    88    82    1
    97    89    94    1
    98    90    94    2
    99    91    94    2
   100    92    95    2
   101    93    95    2
   102    94    81    1
   103    95    82    1
   104    89    95    1
   105    96    98    1
   106    97   101    1
   107    99    96    1
   108   100    96    1
   109   102    97    1
   110   103    97    1
   111   104   109    1
   112   105   109    2
   113   106   109    2
   114   107   110    2
   115   108   110    2
   116   109    96    1
   117   110    97    1
   118   104   110    1
@<TRIPOS>SUBSTRUCTURE
     1 RES1        1 GROUP             0 ****  ****    0  
     2 RES2       81 GROUP             0 ****  ****    0  
     3 RES3       96 GROUP             0 ****  ****    0  
@<TRIPOS>CRYSIN
   18.1363   24.2255   22.1182   90.0000   90.0000   90.0000    61     1
