@<TRIPOS>MOLECULE
ZONXEF
   113   124     3     0     0
SMALL
NO_CHARGES
****
Generated from the CSD

@<TRIPOS>ATOM
     1 Fe1     15.6783  14.7714  10.1847   Fe        1 RES1   0.0000
     2 O1      14.8878  14.4911   7.5576   O.2       1 RES1   0.0000
     3 O2      14.7836  14.6237  12.8037   O.2       1 RES1   0.0000
     4 N1      17.6279  15.2371  10.1928   N.2       1 RES1   0.0000
     5 N2      15.2313  16.6599  10.6424   N.2       1 RES1   0.0000
     6 N3      13.7401  14.3000  10.1725   N.2       1 RES1   0.0000
     7 N4      16.1309  12.8753   9.7473   N.2       1 RES1   0.0000
     8 N5      15.5394  15.1710   8.3593   N.2       1 RES1   0.0000
     9 N6      15.6883  14.3264  12.0305   N.2       1 RES1   0.0000
    10 C3      18.6803  14.4070   9.8760   C.2       1 RES1   0.0000
    11 C4      19.9179  15.1278   9.9708   C.2       1 RES1   0.0000
    12 C5      19.6201  16.3808  10.3635   C.2       1 RES1   0.0000
    13 C6      18.1915  16.4584  10.4908   C.2       1 RES1   0.0000
    14 C7      17.4968  17.6167  10.8252   C.2       1 RES1   0.0000
    15 C8      16.1106  17.6904  10.8794   C.2       1 RES1   0.0000
    16 C9      15.3750  18.9060  11.1218   C.2       1 RES1   0.0000
    17 C10     14.0699  18.6098  11.0189   C.2       1 RES1   0.0000
    18 C11     13.9730  17.2059  10.7223   C.2       1 RES1   0.0000
    19 C12     12.7692  16.5285  10.5612   C.2       1 RES1   0.0000
    20 C13     12.6821  15.1671  10.3215   C.2       1 RES1   0.0000
    21 C14     11.4366  14.4430  10.2253   C.2       1 RES1   0.0000
    22 C15     11.7480  13.1539  10.0290   C.2       1 RES1   0.0000
    23 C16     13.1827  13.0585   9.9911   C.2       1 RES1   0.0000
    24 C17     13.8774  11.8744   9.7839   C.2       1 RES1   0.0000
    25 C18     15.2645  11.8104   9.6742   C.2       1 RES1   0.0000
    26 C19     16.0020  10.5936   9.4508   C.2       1 RES1   0.0000
    27 C20     17.3055  10.9314   9.3573   C.2       1 RES1   0.0000
    28 C21     17.3828  12.3543   9.5456   C.2       1 RES1   0.0000
    29 C22     18.5843  13.0613   9.5523   C.2       1 RES1   0.0000
    30 C23     18.2526  18.8940  11.0568   C.ar      1 RES1   0.0000
    31 C24     18.7239  19.6253   9.9775   C.ar      1 RES1   0.0000
    32 C25     19.3378  20.8559  10.1820   C.ar      1 RES1   0.0000
    33 C26     19.4880  21.3597  11.4482   C.ar      1 RES1   0.0000
    34 C27     19.0313  20.6388  12.5220   C.ar      1 RES1   0.0000
    35 C28     18.4210  19.4029  12.3257   C.ar      1 RES1   0.0000
    36 C29     11.5004  17.3137  10.6600   C.ar      1 RES1   0.0000
    37 C30     10.9161  17.5738  11.8734   C.ar      1 RES1   0.0000
    38 C31      9.7503  18.3028  11.9492   C.ar      1 RES1   0.0000
    39 C32      9.1509  18.7865  10.8361   C.ar      1 RES1   0.0000
    40 C33      9.7031  18.5123   9.6336   C.ar      1 RES1   0.0000
    41 C34     10.8725  17.7750   9.5320   C.ar      1 RES1   0.0000
    42 C35     13.1033  10.5933   9.6674   C.ar      1 RES1   0.0000
    43 C36     12.9328   9.9693   8.4419   C.ar      1 RES1   0.0000
    44 C37     12.2496   8.7647   8.3539   C.ar      1 RES1   0.0000
    45 C38     11.7325   8.1738   9.4792   C.ar      1 RES1   0.0000
    46 C39     11.8785   8.7990  10.7007   C.ar      1 RES1   0.0000
    47 C40     12.5559  10.0034  10.7955   C.ar      1 RES1   0.0000
    48 C41     19.8303  12.3015   9.2219   C.ar      1 RES1   0.0000
    49 C42     20.1651  12.0443   7.9057   C.ar      1 RES1   0.0000
    50 C43     21.2890  11.2829   7.5969   C.ar      1 RES1   0.0000
    51 C44     22.0868  10.7781   8.5990   C.ar      1 RES1   0.0000
    52 C45     21.7678  11.0380   9.9003   C.ar      1 RES1   0.0000
    53 C46     20.6517  11.7923  10.2199   C.ar      1 RES1   0.0000
    54 C47     16.0925  16.3826   7.7432   C.ar      1 RES1   0.0000
    55 C48     15.2411  17.4439   7.4899   C.ar      1 RES1   0.0000
    56 C49     15.7510  18.5631   6.8697   C.ar      1 RES1   0.0000
    57 C50     17.0738  18.6164   6.5014   C.ar      1 RES1   0.0000
    58 C51     17.9047  17.5639   6.7519   C.ar      1 RES1   0.0000
    59 C52     17.4165  16.4297   7.3843   C.ar      1 RES1   0.0000
    60 C53     16.6805  13.4323  12.6398   C.ar      1 RES1   0.0000
    61 C54     17.9496  13.9054  12.9256   C.ar      1 RES1   0.0000
    62 C55     18.8410  13.0459  13.5525   C.ar      1 RES1   0.0000
    63 C56     18.4812  11.7522  13.8599   C.ar      1 RES1   0.0000
    64 C57     17.2037  11.2931  13.5634   C.ar      1 RES1   0.0000
    65 C58     16.2990  12.1391  12.9486   C.ar      1 RES1   0.0000
    66 H5      20.7655  14.7908   9.7934   H         1 RES1   0.0000
    67 H6      20.2251  17.0671  10.5219   H         1 RES1   0.0000
    68 H7      15.7372  19.7407  11.3141   H         1 RES1   0.0000
    69 H8      13.3607  19.2018  11.1205   H         1 RES1   0.0000
    70 H9      10.5812  14.8020  10.2876   H         1 RES1   0.0000
    71 H10     11.1466  12.4513   9.9342   H         1 RES1   0.0000
    72 H11     15.6463   9.7363   9.3831   H         1 RES1   0.0000
    73 H12     18.0175  10.3538   9.2016   H         1 RES1   0.0000
    74 H13     18.6297  19.2927   9.1149   H         1 RES1   0.0000
    75 H14     19.6485  21.3429   9.4535   H         1 RES1   0.0000
    76 H15     19.8984  22.1847  11.5782   H         1 RES1   0.0000
    77 H16     19.1278  20.9765  13.3833   H         1 RES1   0.0000
    78 H17     18.1240  18.9166  13.0596   H         1 RES1   0.0000
    79 H18     11.3106  17.2526  12.6520   H         1 RES1   0.0000
    80 H19      9.3687  18.4671  12.7807   H         1 RES1   0.0000
    81 H20      8.3742  19.2951  10.8984   H         1 RES1   0.0000
    82 H21      9.2918  18.8244   8.8603   H         1 RES1   0.0000
    83 H22     11.2337  17.5919   8.6951   H         1 RES1   0.0000
    84 H23     13.2783  10.3612   7.6727   H         1 RES1   0.0000
    85 H24     12.1403   8.3541   7.5251   H         1 RES1   0.0000
    86 H25     11.2872   7.3587   9.4196   H         1 RES1   0.0000
    87 H26     11.5188   8.4093  11.4644   H         1 RES1   0.0000
    88 H27     12.6453  10.4191  11.6229   H         1 RES1   0.0000
    89 H28     19.6345  12.3813   7.2204   H         1 RES1   0.0000
    90 H29     21.5038  11.1167   6.7086   H         1 RES1   0.0000
    91 H30     22.8338  10.2643   8.3904   H         1 RES1   0.0000
    92 H31     22.3070  10.7036  10.5815   H         1 RES1   0.0000
    93 H32     20.4505  11.9601  11.1123   H         1 RES1   0.0000
    94 H33     14.3438  17.4011   7.7310   H         1 RES1   0.0000
    95 H34     15.1959  19.2896   6.6991   H         1 RES1   0.0000
    96 H35     17.4056  19.3759   6.0789   H         1 RES1   0.0000
    97 H36     18.7989  17.6081   6.5000   H         1 RES1   0.0000
    98 H37     17.9801  15.7114   7.5617   H         1 RES1   0.0000
    99 H38     18.1964  14.7730  12.7035   H         1 RES1   0.0000
   100 H39     19.6932  13.3484  13.7679   H         1 RES1   0.0000
   101 H40     19.0956  11.1860  14.2689   H         1 RES1   0.0000
   102 H41     16.9593  10.4219  13.7760   H         1 RES1   0.0000
   103 H42     15.4413  11.8421  12.7441   H         1 RES1   0.0000
   104 Cl1     10.1170  22.7066  12.0074   Cl        2 RES2   0.0000
   105 Cl2     12.7522  21.7304  12.7468   Cl        2 RES2   0.0000
   106 C1      11.5132  21.8027  11.5254   C.3       2 RES2   0.0000
   107 H1      11.8843  22.2037  10.7250   H         2 RES2   0.0000
   108 H2      11.2397  20.8989  11.3019   H         2 RES2   0.0000
   109 Cl3     17.2729  11.1906   5.3882   Cl        3 RES3   0.0000
   110 Cl4     14.5005  12.0758   5.3084   Cl        3 RES3   0.0000
   111 C2      15.9884  12.0162   6.1872   C.3       3 RES3   0.0000
   112 H3      16.2730  12.9246   6.3714   H         3 RES3   0.0000
   113 H4      15.8252  11.5835   7.0403   H         3 RES3   0.0000
@<TRIPOS>BOND
     1     1     4    1
     2     2     8    2
     3     3     9    2
     4     4    10    1
     5     5     1    1
     6     6     1    1
     7     7     1    1
     8     8     1    1
     9     9     1    1
    10    10    11    2
    11    11    12    1
    12    12    13    2
    13    13     4    1
    14    14    13    1
    15    15     5    1
    16    16    15    1
    17    17    16    2
    18    18     5    2
    19    19    18    1
    20    20     6    1
    21    21    20    1
    22    22    21    2
    23    23     6    1
    24    24    23    2
    25    25     7    2
    26    26    25    1
    27    27    26    2
    28    28     7    1
    29    29    10    1
    30    30    14    1
    31    31    30   ar
    32    32    31   ar
    33    33    32   ar
    34    34    33   ar
    35    35    30   ar
    36    36    19    1
    37    37    36   ar
    38    38    37   ar
    39    39    38   ar
    40    40    39   ar
    41    41    36   ar
    42    42    24    1
    43    43    42   ar
    44    44    43   ar
    45    45    44   ar
    46    46    45   ar
    47    47    42   ar
    48    48    29    1
    49    49    48   ar
    50    50    49   ar
    51    51    50   ar
    52    52    51   ar
    53    53    48   ar
    54    54     8    1
    55    55    54   ar
    56    56    55   ar
    57    57    56   ar
    58    58    57   ar
    59    59    54   ar
    60    60     9    1
    61    61    60   ar
    62    62    61   ar
    63    63    62   ar
    64    64    63   ar
    65    65    60   ar
    66    66    11    1
    67    67    12    1
    68    68    16    1
    69    69    17    1
    70    70    21    1
    71    71    22    1
    72    72    26    1
    73    73    27    1
    74    74    31    1
    75    75    32    1
    76    76    33    1
    77    77    34    1
    78    78    35    1
    79    79    37    1
    80    80    38    1
    81    81    39    1
    82    82    40    1
    83    83    41    1
    84    84    43    1
    85    85    44    1
    86    86    45    1
    87    87    46    1
    88    88    47    1
    89    89    49    1
    90    90    50    1
    91    91    51    1
    92    92    52    1
    93    93    53    1
    94    94    55    1
    95    95    56    1
    96    96    57    1
    97    97    58    1
    98    98    59    1
    99    99    61    1
   100   100    62    1
   101   101    63    1
   102   102    64    1
   103   103    65    1
   104    14    15    2
   105    17    18    1
   106    19    20    2
   107    22    23    1
   108    24    25    1
   109    27    28    1
   110    28    29    2
   111    34    35   ar
   112    40    41   ar
   113    46    47   ar
   114    52    53   ar
   115    58    59   ar
   116    64    65   ar
   117   104   106    1
   118   105   106    1
   119   106   107    1
   120   108   106    1
   121   109   111    1
   122   110   111    1
   123   111   112    1
   124   113   111    1
@<TRIPOS>SUBSTRUCTURE
     1 RES1        1 GROUP             0 ****  ****    0  
     2 RES2      104 GROUP             0 ****  ****    0  
     3 RES3      109 GROUP             0 ****  ****    0  
@<TRIPOS>CRYSIN
   13.1130   14.5840   15.6140   65.0500   68.0500   73.4100     2     1
