@<TRIPOS>MOLECULE
ZOPROO
    91    92    11     0     0
SMALL
USER_CHARGES
****
Generated from the CSD

@<TRIPOS>ATOM
     1 Fe1     14.3793  14.4340   5.4430   Fe        1 RES1   3.0000
     2 N1      13.8771  13.5391   3.7502   N.ar      1 RES1   0.0000
     3 C1      14.1935  12.2161   3.7657   C.ar      1 RES1   0.0000
     4 C2      14.7651  11.7164   4.9717   C.ar      1 RES1   0.0000
     5 N2      14.9305  12.6188   5.9754   N.ar      1 RES1   0.0000
     6 C3      15.4374  12.1658   7.1171   C.ar      1 RES1   0.0000
     7 C4      15.7465  10.7925   7.3040   C.ar      1 RES1   0.0000
     8 C5      15.5955   9.9225   6.2742   C.ar      1 RES1   0.0000
     9 C6      15.1066  10.3647   5.0348   C.ar      1 RES1   0.0000
    10 C7      14.8801   9.5162   3.9050   C.ar      1 RES1   0.0000
    11 C8      14.3804   9.9908   2.7680   C.ar      1 RES1   0.0000
    12 C9      13.9993  11.3461   2.6525   C.ar      1 RES1   0.0000
    13 C10     13.4061  11.9609   1.5227   C.ar      1 RES1   0.0000
    14 C11     13.0646  13.2515   1.5287   C.ar      1 RES1   0.0000
    15 C12     13.3234  14.0389   2.6549   C.ar      1 RES1   0.0000
    16 N3      12.5361  14.1683   6.1159   N.ar      1 RES1   0.0000
    17 C13     11.7308  15.2396   5.8611   C.ar      1 RES1   0.0000
    18 C14     12.3420  16.3361   5.2194   C.ar      1 RES1   0.0000
    19 N4      13.6506  16.1815   4.8729   N.ar      1 RES1   0.0000
    20 C15     14.2294  17.1846   4.2253   C.ar      1 RES1   0.0000
    21 C16     13.6146  18.3746   3.9110   C.ar      1 RES1   0.0000
    22 C17     12.3060  18.5471   4.2610   C.ar      1 RES1   0.0000
    23 C18     11.6517  17.5477   4.9241   C.ar      1 RES1   0.0000
    24 C19     10.2892  17.5764   5.3075   C.ar      1 RES1   0.0000
    25 C20      9.6636  16.5375   5.8885   C.ar      1 RES1   0.0000
    26 C21     10.3826  15.3079   6.2016   C.ar      1 RES1   0.0000
    27 C22      9.8326  14.1575   6.8052   C.ar      1 RES1   0.0000
    28 C23     10.6559  13.0790   7.0802   C.ar      1 RES1   0.0000
    29 C24     11.9789  13.1329   6.7159   C.ar      1 RES1   0.0000
    30 N5      16.2067  14.8765   4.8098   N.ar      1 RES1   0.0000
    31 C25     16.7532  14.6860   3.6097   C.ar      1 RES1   0.0000
    32 C26     18.0834  15.1246   3.3193   C.ar      1 RES1   0.0000
    33 C27     18.8132  15.7106   4.2681   C.ar      1 RES1   0.0000
    34 C28     18.2919  15.9047   5.5194   C.ar      1 RES1   0.0000
    35 C29     16.9725  15.4805   5.7456   C.ar      1 RES1   0.0000
    36 C30     16.3253  15.6603   6.9790   C.ar      1 RES1   0.0000
    37 N6      15.0419  15.2468   7.1135   N.ar      1 RES1   0.0000
    38 C31     14.4020  15.4481   8.2946   C.ar      1 RES1   0.0000
    39 C32     15.0707  16.0377   9.3875   C.ar      1 RES1   0.0000
    40 C33     16.3469  16.4440   9.2661   C.ar      1 RES1   0.0000
    41 C34     17.0120  16.2606   8.0457   C.ar      1 RES1   0.0000
    42 C35     18.3710  16.7172   7.8493   C.ar      1 RES1   0.0000
    43 C36     18.9390  16.5087   6.6433   C.ar      1 RES1   0.0000
    44 H1      15.6315  12.8093   7.7886   H         1 RES1   0.0000
    45 H2      16.1025  10.5300   8.1457   H         1 RES1   0.0000
    46 H3      15.7609   9.0057   6.4599   H         1 RES1   0.0000
    47 H4      15.0922   8.5959   4.0026   H         1 RES1   0.0000
    48 H5      14.3624   9.3652   2.0549   H         1 RES1   0.0000
    49 H6      13.2623  11.4648   0.7250   H         1 RES1   0.0000
    50 H7      12.6224  13.6758   0.8024   H         1 RES1   0.0000
    51 H8      13.1005  14.9628   2.6264   H         1 RES1   0.0000
    52 H9      15.1426  17.0767   3.9943   H         1 RES1   0.0000
    53 H10     14.0784  19.0396   3.4169   H         1 RES1   0.0000
    54 H11     11.8530  19.3560   4.0550   H         1 RES1   0.0000
    55 H12      9.7751  18.3314   5.0575   H         1 RES1   0.0000
    56 H13      8.7756  16.6273   6.2182   H         1 RES1   0.0000
    57 H14     10.3143  12.3168   7.5314   H         1 RES1   0.0000
    58 H15     12.5217  12.3707   6.8945   H         1 RES1   0.0000
    59 H16     16.2606  14.2618   2.9192   H         1 RES1   0.0000
    60 H17     18.4285  15.0131   2.4418   H         1 RES1   0.0000
    61 H18     19.7263  15.9011   4.0883   H         1 RES1   0.0000
    62 H19     14.6141  16.1851  10.2090   H         1 RES1   0.0000
    63 H20     16.7532  16.8898   9.9994   H         1 RES1   0.0000
    64 H21     18.8815  17.0659   8.5732   H         1 RES1   0.0000
    65 H22     19.8450  16.7819   6.5647   H         1 RES1   0.0000
    66 H23      8.9015  14.1216   6.9957   H         1 RES1   0.0000
    67 H24     13.5212  15.1174   8.4315   H         1 RES1   0.0000
    68 Cl1     11.6212  20.2800   1.2858   Cl        2 RES2  -1.0000
    69 Cl2     12.1119  17.0372   0.7667   Cl        3 RES3  -1.0000
    70 O1      13.9742  26.8913   0.5334   O.3       4 RES4   0.0000
    71 H25     13.6937  27.3983   1.2846   H         4 RES4   0.0000
    72 H26     13.5499  27.2221  -0.2500   H         4 RES4   0.0000
    73 Cl3     14.0461  21.8618   1.1334   Cl        5 RES5  -1.0000
    74 O2      19.3668  25.8164   0.2500   O.3       6 RES6   0.0000
    75 H27     19.6976  26.1759  -0.5619   H         6 RES6   0.0000
    76 H28     19.1259  26.5246   0.8381   H         6 RES6   0.0000
    77 O3      15.0455  16.6345   1.0024   O.3       7 RES7   0.0000
    78 H29     15.2073  16.3541   1.8954   H         7 RES7   0.0000
    79 H30     15.2648  15.9335   0.4036   H         7 RES7   0.0000
    80 O4      16.6813  18.5579   0.5369   O.3       8 RES8   0.0000
    81 H31     17.2996  18.4644   1.2489   H         8 RES8   0.0000
    82 H32     17.0803  18.2667  -0.2738   H         8 RES8   0.0000
    83 O5      16.7100  21.2255   0.1667   O.3       9 RES9   0.0000
    84 H33     16.4332  21.6713   0.9596   H         9 RES9   0.0000
    85 H34     16.1420  21.4771  -0.5524   H         9 RES9   0.0000
    86 O6      19.6400  21.9121  -0.4334   O.3      10 RES10   0.0000
    87 H35     20.1901  21.5562  -1.1215   H        10 RES10   0.0000
    88 H36     18.9210  21.3153  -0.2631   H        10 RES10   0.0000
    89 O7      20.4597  23.3466   1.1917   O.3      11 RES11   0.0000
    90 H37     21.4088  23.3681   1.2001   H        11 RES11   0.0000
    91 H38     20.1398  23.1273   2.0585   H        11 RES11   0.0000
@<TRIPOS>BOND
     1     1     2    1
     2     2     3   ar
     3     3     4   ar
     4     4     5   ar
     5     5     1    1
     6     6     5   ar
     7     7     6   ar
     8     8     7   ar
     9     9     4   ar
    10    10     9   ar
    11    11    10   ar
    12    12     3   ar
    13    13    12   ar
    14    14    13   ar
    15    15     2   ar
    16    16     1    1
    17    17    16   ar
    18    18    17   ar
    19    19     1    1
    20    20    19   ar
    21    21    20   ar
    22    22    21   ar
    23    23    18   ar
    24    24    23   ar
    25    25    24   ar
    26    26    17   ar
    27    27    26   ar
    28    28    27   ar
    29    29    16   ar
    30    30     1    1
    31    31    30   ar
    32    32    31   ar
    33    33    32   ar
    34    34    33   ar
    35    35    30   ar
    36    36    35   ar
    37    37     1    1
    38    38    37   ar
    39    39    38   ar
    40    40    39   ar
    41    41    36   ar
    42    42    41   ar
    43    43    34   ar
    44    44     6    1
    45    45     7    1
    46    46     8    1
    47    47    10    1
    48    48    11    1
    49    49    13    1
    50    50    14    1
    51    51    15    1
    52    52    20    1
    53    53    21    1
    54    54    22    1
    55    55    24    1
    56    56    25    1
    57    57    28    1
    58    58    29    1
    59    59    31    1
    60    60    32    1
    61    61    33    1
    62    62    39    1
    63    63    40    1
    64    64    42    1
    65    65    43    1
    66    66    27    1
    67    67    38    1
    68     8     9   ar
    69    11    12   ar
    70    14    15   ar
    71    18    19   ar
    72    22    23   ar
    73    25    26   ar
    74    28    29   ar
    75    34    35   ar
    76    36    37   ar
    77    40    41   ar
    78    42    43   ar
    79    70    71    1
    80    72    70    1
    81    74    75    1
    82    76    74    1
    83    77    78    1
    84    79    77    1
    85    80    81    1
    86    82    80    1
    87    83    84    1
    88    85    83    1
    89    86    87    1
    90    88    86    1
    91    89    90    1
    92    91    89    1
@<TRIPOS>SUBSTRUCTURE
     1 RES1        1 GROUP             0 ****  ****    0  
     2 RES2       68 GROUP             0 ****  ****    0  
     3 RES3       69 GROUP             0 ****  ****    0  
     4 RES4       70 GROUP             0 ****  ****    0  
     5 RES5       73 GROUP             0 ****  ****    0  
     6 RES6       74 GROUP             0 ****  ****    0  
     7 RES7       77 GROUP             0 ****  ****    0  
     8 RES8       80 GROUP             0 ****  ****    0  
     9 RES9       83 GROUP             0 ****  ****    0  
    10 RES10      86 GROUP             0 ****  ****    0  
    11 RES11      89 GROUP             0 ****  ****    0  
