@<TRIPOS>MOLECULE
ZORHEW
    96   106     2     0     0
SMALL
NO_CHARGES
****
Generated from the CSD

@<TRIPOS>ATOM
     1 Fe1     13.0556   4.9370   7.7676   Fe        1 RES1   0.0000
     2 O1       6.4913   6.3053   6.5185   O.2       1 RES1   0.0000
     3 N1      11.1663   5.2233   7.4109   N.2       1 RES1   0.0000
     4 N2      12.6196   7.7412   7.1555   N.pl3     1 RES1   0.0000
     5 N3      12.8166   5.8879   9.4660   N.2       1 RES1   0.0000
     6 N4      13.4210   6.6640   6.9093   N.2       1 RES1   0.0000
     7 N5      12.1401   7.0708   9.4861   N.pl3     1 RES1   0.0000
     8 N6      10.5791   6.4280   7.6537   N.pl3     1 RES1   0.0000
     9 N7       7.8313   4.4956   6.4166   N.am      1 RES1   0.0000
    10 H1       7.8660   3.6384   6.2191   H         1 RES1   0.0000
    11 C1      10.2185   4.4186   6.9381   C.2       1 RES1   0.0000
    12 H2      10.3487   3.5126   6.6853   H         1 RES1   0.0000
    13 C2       9.0064   5.1029   6.8687   C.2       1 RES1   0.0000
    14 C3      13.0406   8.8007   6.4373   C.2       1 RES1   0.0000
    15 H3      12.6480   9.6659   6.4393   H         1 RES1   0.0000
    16 C4       9.2637   6.3737   7.3346   C.2       1 RES1   0.0000
    17 H4       8.6349   7.0811   7.4167   H         1 RES1   0.0000
    18 C5       5.5256   4.2705   5.7345   C.ar      1 RES1   0.0000
    19 C6      12.1589   7.5882  10.7290   C.2       1 RES1   0.0000
    20 H5      11.7624   8.4092  10.9957   H         1 RES1   0.0000
    21 C7      14.1350   8.4146   5.7016   C.2       1 RES1   0.0000
    22 H6      14.6438   8.9456   5.0998   H         1 RES1   0.0000
    23 C8      13.2379   5.6835  10.7135   C.2       1 RES1   0.0000
    24 H7      13.7371   4.9267  10.9962   H         1 RES1   0.0000
    25 C9       6.6428   5.1276   6.2597   C.2       1 RES1   0.0000
    26 C10     14.3361   7.0747   6.0312   C.2       1 RES1   0.0000
    27 H8      15.0295   6.5293   5.6785   H         1 RES1   0.0000
    28 C11      4.3547   4.9202   5.3697   C.ar      1 RES1   0.0000
    29 H9       4.2759   5.8595   5.4848   H         1 RES1   0.0000
    30 C12     12.8492   6.7262  11.5456   C.2       1 RES1   0.0000
    31 H10     13.0229   6.8222  12.4746   H         1 RES1   0.0000
    32 C13      3.4054   2.8259   4.6764   C.ar      1 RES1   0.0000
    33 H11      2.6847   2.3372   4.2967   H         1 RES1   0.0000
    34 C14      4.5493   2.1673   5.0635   C.ar      1 RES1   0.0000
    35 H12      4.6109   1.2242   4.9702   H         1 RES1   0.0000
    36 C15      5.6128   2.8862   5.5908   C.ar      1 RES1   0.0000
    37 H13      6.4045   2.4321   5.8553   H         1 RES1   0.0000
    38 C16      3.2980   4.1925   4.8362   C.ar      1 RES1   0.0000
    39 H14      2.4987   4.6380   4.5803   H         1 RES1   0.0000
    40 B1      11.4800   7.5635   8.1779   B         1 RES1   0.0000
    41 H15     10.9138   8.5015   8.3299   H         1 RES1   0.0000
    42 O1B     19.6199   3.5687   9.0166   O.2       1 RES1   0.0000
    43 N1B     14.9449   4.6507   8.1243   N.2       1 RES1   0.0000
    44 N2B     13.4916   2.1328   8.3797   N.pl3     1 RES1   0.0000
    45 N3B     13.2946   3.9861   6.0691   N.2       1 RES1   0.0000
    46 N4B     12.6902   3.2100   8.6259   N.2       1 RES1   0.0000
    47 N5B     13.9711   2.8032   6.0491   N.pl3     1 RES1   0.0000
    48 N6B     15.5320   3.4460   7.8814   N.pl3     1 RES1   0.0000
    49 N7B     18.2799   5.3784   9.1185   N.am      1 RES1   0.0000
    50 H1B     18.2452   6.2356   9.3160   H         1 RES1   0.0000
    51 C1B     15.8927   5.4554   8.5970   C.2       1 RES1   0.0000
    52 H2B     15.7625   6.3614   8.8499   H         1 RES1   0.0000
    53 C2B     17.1048   4.7711   8.6664   C.2       1 RES1   0.0000
    54 C3B     13.0706   1.0733   9.0978   C.2       1 RES1   0.0000
    55 H3B     13.4632   0.2081   9.0958   H         1 RES1   0.0000
    56 C4B     16.8475   3.5003   8.2005   C.2       1 RES1   0.0000
    57 H4B     17.4763   2.7929   8.1185   H         1 RES1   0.0000
    58 C5B     20.5856   5.6035   9.8007   C.ar      1 RES1   0.0000
    59 C6B     13.9523   2.2858   4.8061   C.2       1 RES1   0.0000
    60 H5B     14.3488   1.4648   4.5395   H         1 RES1   0.0000
    61 C7B     11.9762   1.4594   9.8336   C.2       1 RES1   0.0000
    62 H6B     11.4674   0.9284  10.4354   H         1 RES1   0.0000
    63 C8B     12.8733   4.1905   4.8216   C.2       1 RES1   0.0000
    64 H7B     12.3741   4.9473   4.5389   H         1 RES1   0.0000
    65 C9B     19.4684   4.7464   9.2754   C.2       1 RES1   0.0000
    66 C10B    11.7751   2.7993   9.5039   C.2       1 RES1   0.0000
    67 H8B     11.0817   3.3447   9.8566   H         1 RES1   0.0000
    68 C11B    21.7565   4.9538  10.1654   C.ar      1 RES1   0.0000
    69 H9B     21.8353   4.0145  10.0503   H         1 RES1   0.0000
    70 C12B    13.2620   3.1478   3.9896   C.2       1 RES1   0.0000
    71 H10B    13.0883   3.0518   3.0606   H         1 RES1   0.0000
    72 C13B    22.7058   7.0481  10.8588   C.ar      1 RES1   0.0000
    73 H11B    23.4265   7.5368  11.2384   H         1 RES1   0.0000
    74 C14B    21.5619   7.7067  10.4716   C.ar      1 RES1   0.0000
    75 H12B    21.5003   8.6498  10.5649   H         1 RES1   0.0000
    76 C15B    20.4984   6.9878   9.9444   C.ar      1 RES1   0.0000
    77 H13B    19.7067   7.4419   9.6799   H         1 RES1   0.0000
    78 C16B    22.8132   5.6815  10.6989   C.ar      1 RES1   0.0000
    79 H14B    23.6125   5.2360  10.9548   H         1 RES1   0.0000
    80 B1B     14.6312   2.3105   7.3573   B         1 RES1   0.0000
    81 H15B    15.1974   1.3725   7.2052   H         1 RES1   0.0000
    82 O2       8.8465   1.6717   5.9167   O.3       2 RES2   0.0000
    83 C17      9.7164   1.5038   4.8030   C.3       2 RES2   0.0000
    84 H16      9.6519   0.5776   4.4598   H         2 RES2   0.0000
    85 H17     10.6531   1.6701   5.0774   H         2 RES2   0.0000
    86 C18      9.2052   0.8166   7.0048   C.3       2 RES2   0.0000
    87 H18     10.1360   1.0001   7.2857   H         2 RES2   0.0000
    88 H19      9.1463  -0.1309   6.7219   H         2 RES2   0.0000
    89 C19      9.3153   2.4754   3.7337   C.3       2 RES2   0.0000
    90 H20      9.9016   2.3650   2.9559   H         2 RES2   0.0000
    91 H21      9.3970   3.3900   4.0764   H         2 RES2   0.0000
    92 H22      8.3873   2.3065   3.4701   H         2 RES2   0.0000
    93 C20      8.2767   1.0654   8.1326   C.3       2 RES2   0.0000
    94 H23      7.3717   0.7905   7.8784   H         2 RES2   0.0000
    95 H24      8.2794   2.0199   8.3532   H         2 RES2   0.0000
    96 H25      8.5675   0.5491   8.9142   H         2 RES2   0.0000
@<TRIPOS>BOND
     1     1     3    1
     2     2    25    2
     3     3     8    1
     4     4     6    1
     5     5     1    1
     6     6     1    1
     7     7     5    1
     8     8    16    1
     9     9    10    1
    10    11     3    2
    11    12    11    1
    12    13     9    1
    13    14     4    1
    14    15    14    1
    15    16    13    2
    16    17    16    1
    17    18    25    1
    18    19     7    1
    19    20    19    1
    20    21    14    2
    21    22    21    1
    22    23     5    2
    23    24    23    1
    24    25     9   am
    25    26     6    2
    26    27    26    1
    27    28    18   ar
    28    29    28    1
    29    30    19    2
    30    31    30    1
    31    32    33    1
    32    34    32   ar
    33    35    34    1
    34    36    18   ar
    35    37    36    1
    36    38    28   ar
    37    39    38    1
    38    40     4    1
    39    41    40    1
    40    42    65    2
    41    43     1    1
    42    44    46    1
    43    45     1    1
    44    46     1    1
    45    47    45    1
    46    48    43    1
    47    49    50    1
    48    51    43    2
    49    52    51    1
    50    53    49    1
    51    54    44    1
    52    55    54    1
    53    56    48    1
    54    57    56    1
    55    58    65    1
    56    59    47    1
    57    60    59    1
    58    61    54    2
    59    62    61    1
    60    63    45    2
    61    64    63    1
    62    65    49   am
    63    66    46    2
    64    67    66    1
    65    68    58   ar
    66    69    68    1
    67    70    59    2
    68    71    70    1
    69    72    73    1
    70    74    72   ar
    71    75    74    1
    72    76    58   ar
    73    77    76    1
    74    78    68   ar
    75    79    78    1
    76    80    44    1
    77    81    80    1
    78     7    40    1
    79     8    40    1
    80    11    13    1
    81    21    26    1
    82    23    30    1
    83    32    38   ar
    84    34    36   ar
    85    47    80    1
    86    48    80    1
    87    51    53    1
    88    53    56    2
    89    61    66    1
    90    63    70    1
    91    72    78   ar
    92    74    76   ar
    93    82    83    1
    94    83    84    1
    95    85    83    1
    96    86    82    1
    97    87    86    1
    98    88    86    1
    99    89    83    1
   100    90    89    1
   101    91    89    1
   102    92    89    1
   103    93    86    1
   104    94    93    1
   105    95    93    1
   106    96    93    1
@<TRIPOS>SUBSTRUCTURE
     1 RES1        1 GROUP             0 ****  ****    0  
     2 RES2       82 GROUP             0 ****  ****    0  
@<TRIPOS>CRYSIN
   13.9810    9.8740   15.6450   90.0000   96.7940   90.0000   231     1
