@<TRIPOS>MOLECULE
ZORHOG
    87    98     1     0     0
SMALL
NO_CHARGES
****
Generated from the CSD

@<TRIPOS>ATOM
     1 Fe1      0.0000   0.0000   0.0000   Fe        1 RES1   0.0000
     2 S1      -7.9290  -7.1011   5.5703   S.3       1 RES1   0.0000
     3 N1      -0.2577  -0.4712  -1.9005   N.2       1 RES1   0.0000
     4 N2       1.7071  -0.9642  -0.0185   N.2       1 RES1   0.0000
     5 N3      -0.8797  -1.6970   0.4905   N.2       1 RES1   0.0000
     6 N4      -0.5610  -2.8345  -0.1937   N.pl3     1 RES1   0.0000
     7 N5       1.7801  -2.1952  -0.6243   N.pl3     1 RES1   0.0000
     8 N6      -3.0368  -4.2336   1.9297   N.2       1 RES1   0.0000
     9 N7       0.0461  -1.7302  -2.3233   N.pl3     1 RES1   0.0000
    10 C1      -8.4482  -6.1848   6.9792   C.3       1 RES1   0.0000
    11 H1      -8.7053  -5.2998   6.7096   H         1 RES1   0.0000
    12 H2      -7.7273  -6.1303   7.6105   H         1 RES1   0.0000
    13 H3      -9.1986  -6.6240   7.3885   H         1 RES1   0.0000
    14 C2      -1.2925  -3.8600   0.2629   C.2       1 RES1   0.0000
    15 H4      -1.2613  -4.7321  -0.0583   H         1 RES1   0.0000
    16 C3      -4.6006  -4.6436   3.6718   C.ar      1 RES1   0.0000
    17 C4       3.0045  -2.7037  -0.4859   C.2       1 RES1   0.0000
    18 H5       3.3006  -3.5199  -0.8208   H         1 RES1   0.0000
    19 C5      -1.7978  -2.0467   1.4008   C.2       1 RES1   0.0000
    20 H6      -2.1825  -1.4689   2.0200   H         1 RES1   0.0000
    21 C6      -5.1086  -4.2460   4.9019   C.ar      1 RES1   0.0000
    22 H7      -4.7537  -3.5050   5.3367   H         1 RES1   0.0000
    23 C7      -2.0932  -3.4074   1.2839   C.2       1 RES1   0.0000
    24 C8      -5.1485  -5.7520   3.0552   C.ar      1 RES1   0.0000
    25 H8      -4.8309  -6.0138   2.2207   H         1 RES1   0.0000
    26 C9      -3.5344  -3.8703   3.0383   C.2       1 RES1   0.0000
    27 H9      -3.2154  -3.1020   3.4538   H         1 RES1   0.0000
    28 C10     -6.1674  -6.4806   3.6595   C.ar      1 RES1   0.0000
    29 H10     -6.5087  -7.2363   3.2377   H         1 RES1   0.0000
    30 C11      3.7405  -1.8246   0.2245   C.2       1 RES1   0.0000
    31 H11      4.6309  -1.9134   0.4765   H         1 RES1   0.0000
    32 C12     -0.6485   0.1993  -2.9845   C.2       1 RES1   0.0000
    33 H12     -0.9291   1.0860  -2.9894   H         1 RES1   0.0000
    34 C13     -0.5733  -0.6113  -4.0992   C.2       1 RES1   0.0000
    35 H13     -0.7786  -0.3806  -4.9774   H         1 RES1   0.0000
    36 C14     -0.1389  -1.8184  -3.6456   C.2       1 RES1   0.0000
    37 H14      0.0068  -2.5753  -4.1668   H         1 RES1   0.0000
    38 C15     -6.6694  -6.0873   4.8803   C.ar      1 RES1   0.0000
    39 C16      2.8996  -0.7649   0.5028   C.2       1 RES1   0.0000
    40 H15      3.1433  -0.0126   0.9931   H         1 RES1   0.0000
    41 C17     -6.1451  -4.9622   5.4739   C.ar      1 RES1   0.0000
    42 H16     -6.4993  -4.6740   6.2845   H         1 RES1   0.0000
    43 B1       0.5141  -2.7525  -1.2931   B         1 RES1   0.0000
    44 H17      0.6993  -3.7364  -1.7544   H         1 RES1   0.0000
    45 S1D      7.9290   7.1011  -5.5703   S.3       1 RES1   0.0000
    46 N1D      0.2577   0.4712   1.9005   N.2       1 RES1   0.0000
    47 N2D     -1.7071   0.9642   0.0185   N.2       1 RES1   0.0000
    48 N3D      0.8797   1.6970  -0.4905   N.2       1 RES1   0.0000
    49 N4D      0.5610   2.8345   0.1937   N.pl3     1 RES1   0.0000
    50 N5D     -1.7801   2.1952   0.6243   N.pl3     1 RES1   0.0000
    51 N6D      3.0368   4.2336  -1.9297   N.2       1 RES1   0.0000
    52 N7D     -0.0461   1.7302   2.3233   N.pl3     1 RES1   0.0000
    53 C1D      8.4482   6.1848  -6.9792   C.3       1 RES1   0.0000
    54 H1D      8.7053   5.2998  -6.7096   H         1 RES1   0.0000
    55 H2D      7.7273   6.1303  -7.6105   H         1 RES1   0.0000
    56 H3D      9.1986   6.6240  -7.3885   H         1 RES1   0.0000
    57 C2D      1.2925   3.8600  -0.2629   C.2       1 RES1   0.0000
    58 H4D      1.2613   4.7321   0.0583   H         1 RES1   0.0000
    59 C3D      4.6006   4.6436  -3.6718   C.ar      1 RES1   0.0000
    60 C4D     -3.0045   2.7037   0.4859   C.2       1 RES1   0.0000
    61 H5D     -3.3006   3.5199   0.8208   H         1 RES1   0.0000
    62 C5D      1.7978   2.0467  -1.4008   C.2       1 RES1   0.0000
    63 H6D      2.1825   1.4689  -2.0200   H         1 RES1   0.0000
    64 C6D      5.1086   4.2460  -4.9019   C.ar      1 RES1   0.0000
    65 H7D      4.7537   3.5050  -5.3367   H         1 RES1   0.0000
    66 C7D      2.0932   3.4074  -1.2839   C.2       1 RES1   0.0000
    67 C8D      5.1485   5.7520  -3.0552   C.ar      1 RES1   0.0000
    68 H8D      4.8309   6.0138  -2.2207   H         1 RES1   0.0000
    69 C9D      3.5344   3.8703  -3.0383   C.2       1 RES1   0.0000
    70 H9D      3.2154   3.1020  -3.4538   H         1 RES1   0.0000
    71 C10D     6.1674   6.4806  -3.6595   C.ar      1 RES1   0.0000
    72 H10D     6.5087   7.2363  -3.2377   H         1 RES1   0.0000
    73 C11D    -3.7405   1.8246  -0.2245   C.2       1 RES1   0.0000
    74 H11D    -4.6309   1.9134  -0.4765   H         1 RES1   0.0000
    75 C12D     0.6485  -0.1993   2.9845   C.2       1 RES1   0.0000
    76 H12D     0.9291  -1.0860   2.9894   H         1 RES1   0.0000
    77 C13D     0.5733   0.6113   4.0992   C.2       1 RES1   0.0000
    78 H13D     0.7786   0.3806   4.9774   H         1 RES1   0.0000
    79 C14D     0.1389   1.8184   3.6456   C.2       1 RES1   0.0000
    80 H14D    -0.0068   2.5753   4.1668   H         1 RES1   0.0000
    81 C15D     6.6694   6.0873  -4.8803   C.ar      1 RES1   0.0000
    82 C16D    -2.8996   0.7649  -0.5028   C.2       1 RES1   0.0000
    83 H15D    -3.1433   0.0126  -0.9931   H         1 RES1   0.0000
    84 C17D     6.1451   4.9622  -5.4739   C.ar      1 RES1   0.0000
    85 H16D     6.4993   4.6740  -6.2845   H         1 RES1   0.0000
    86 B1D     -0.5141   2.7525   1.2931   B         1 RES1   0.0000
    87 H17D    -0.6993   3.7364   1.7544   H         1 RES1   0.0000
@<TRIPOS>BOND
     1     1     3    1
     2     2    10    1
     3     3     9    1
     4     4     1    1
     5     5     1    1
     6     6     5    1
     7     7     4    1
     8     8    23    1
     9     9    36    1
    10    10    11    1
    11    12    10    1
    12    13    10    1
    13    14     6    1
    14    15    14    1
    15    16    21   ar
    16    17     7    1
    17    18    17    1
    18    19     5    2
    19    20    19    1
    20    21    22    1
    21    23    14    2
    22    24    16   ar
    23    25    24    1
    24    26     8    2
    25    27    26    1
    26    28    24   ar
    27    29    28    1
    28    30    17    2
    29    31    30    1
    30    32     3    2
    31    33    32    1
    32    34    32    1
    33    35    34    1
    34    36    34    2
    35    37    36    1
    36    38     2    1
    37    39     4    2
    38    40    39    1
    39    41    21   ar
    40    42    41    1
    41    43     6    1
    42    44    43    1
    43    45    53    1
    44    46     1    1
    45    47     1    1
    46    48     1    1
    47    49    48    1
    48    50    47    1
    49    51    66    1
    50    52    46    1
    51    53    54    1
    52    55    53    1
    53    56    53    1
    54    57    49    1
    55    58    57    1
    56    59    64   ar
    57    60    50    1
    58    61    60    1
    59    62    48    2
    60    63    62    1
    61    64    65    1
    62    66    57    2
    63    67    59   ar
    64    68    67    1
    65    69    51    2
    66    70    69    1
    67    71    67   ar
    68    72    71    1
    69    73    60    2
    70    74    73    1
    71    75    46    2
    72    76    75    1
    73    77    75    1
    74    78    77    1
    75    79    52    1
    76    80    79    1
    77    81    45    1
    78    82    47    2
    79    83    82    1
    80    84    64   ar
    81    85    84    1
    82    86    49    1
    83    87    86    1
    84     7    43    1
    85     9    43    1
    86    16    26    1
    87    19    23    1
    88    28    38   ar
    89    30    39    1
    90    38    41   ar
    91    50    86    1
    92    52    86    1
    93    59    69    1
    94    62    66    1
    95    71    81   ar
    96    73    82    1
    97    77    79    2
    98    81    84   ar
@<TRIPOS>SUBSTRUCTURE
     1 RES1        1 GROUP             0 ****  ****    0  
@<TRIPOS>CRYSIN
   22.0150   10.3790   16.6250   90.0000  112.3510   90.0000    15     1
