@<TRIPOS>MOLECULE
ZORHIA
    77    88     1     0     0
SMALL
NO_CHARGES
****
Generated from the CSD

@<TRIPOS>ATOM
     1 Fe1     10.9778   4.3213   0.0000   Fe        1 RES1   0.0000
     2 N1      13.4057   5.1327   1.3672   N.pl3     1 RES1   0.0000
     3 N2      10.4837   4.9508   1.7936   N.2       1 RES1   0.0000
     4 N3      11.7800   2.7144   0.8327   N.2       1 RES1   0.0000
     5 N4      11.4098   4.8795   2.8052   N.pl3     1 RES1   0.0000
     6 N5      12.5732   2.8720   1.9321   N.pl3     1 RES1   0.0000
     7 N6      12.7294   5.2146   0.1829   N.2       1 RES1   0.0000
     8 N7       8.7614   6.3463   4.6473   N.2       1 RES1   0.0000
     9 N8       7.5632   6.4110   4.3229   N.2       1 RES1   0.0000
    10 C1       9.5799   5.7706   3.6671   C.2       1 RES1   0.0000
    11 C2       9.3876   5.4734   2.3050   C.2       1 RES1   0.0000
    12 H1       8.5835   5.6283   1.8239   H         1 RES1   0.0000
    13 C3       6.4156   8.6387   7.0563   C.ar      1 RES1   0.0000
    14 H2       6.7590   9.3031   7.6423   H         1 RES1   0.0000
    15 C4      14.5842   5.7770   1.2641   C.2       1 RES1   0.0000
    16 H3      15.2280   5.8558   1.9579   H         1 RES1   0.0000
    17 C5      10.8807   5.3873   3.9309   C.2       1 RES1   0.0000
    18 H4      11.3248   5.4682   4.7660   H         1 RES1   0.0000
    19 C6      11.7891   1.4127   0.5507   C.2       1 RES1   0.0000
    20 H5      11.3131   1.0131  -0.1672   H         1 RES1   0.0000
    21 C7      13.5177   5.9258  -0.6376   C.2       1 RES1   0.0000
    22 H6      13.2998   6.1482  -1.5355   H         1 RES1   0.0000
    23 C8      14.7086   6.2995   0.0071   C.2       1 RES1   0.0000
    24 H7      15.4337   6.7995  -0.3485   H         1 RES1   0.0000
    25 C9      12.5976   0.7117   1.4592   C.2       1 RES1   0.0000
    26 H8      12.7786  -0.2207   1.4806   H         1 RES1   0.0000
    27 C10      5.0764   8.2579   7.1655   C.ar      1 RES1   0.0000
    28 H9       4.4975   8.6930   7.7799   H         1 RES1   0.0000
    29 C11     13.0668   1.6801   2.3070   C.2       1 RES1   0.0000
    30 H10     13.6483   1.5316   3.0438   H         1 RES1   0.0000
    31 C12      4.6088   7.2266   6.3540   C.ar      1 RES1   0.0000
    32 H11      3.7056   6.9421   6.4340   H         1 RES1   0.0000
    33 C13      7.2264   8.0884   6.1428   C.ar      1 RES1   0.0000
    34 H12      8.1210   8.3948   6.0532   H         1 RES1   0.0000
    35 C14      6.7498   7.0615   5.3233   C.ar      1 RES1   0.0000
    36 C15      5.4209   6.6224   5.4527   C.ar      1 RES1   0.0000
    37 H13      5.0960   5.9105   4.9147   H         1 RES1   0.0000
    38 B1      12.7949   4.2873   2.4848   B         1 RES1   0.0000
    39 H14     13.4298   4.2740   3.3650   H         1 RES1   0.0000
    40 N1A      8.5499   3.5100  -1.3672   N.pl3     1 RES1   0.0000
    41 N2A     11.4719   3.6918  -1.7936   N.2       1 RES1   0.0000
    42 N3A     10.1756   5.9282  -0.8327   N.2       1 RES1   0.0000
    43 N4A     10.5459   3.7632  -2.8052   N.pl3     1 RES1   0.0000
    44 N5A      9.3824   5.7707  -1.9321   N.pl3     1 RES1   0.0000
    45 N6A      9.2263   3.4281  -0.1829   N.2       1 RES1   0.0000
    46 N7A     13.1943   2.2963  -4.6473   N.2       1 RES1   0.0000
    47 N8A     14.3925   2.2316  -4.3229   N.2       1 RES1   0.0000
    48 C1A     12.3758   2.8721  -3.6671   C.2       1 RES1   0.0000
    49 C2A     12.5681   3.1693  -2.3050   C.2       1 RES1   0.0000
    50 H1A     13.3722   3.0143  -1.8239   H         1 RES1   0.0000
    51 C3A     15.5401   0.0039  -7.0563   C.ar      1 RES1   0.0000
    52 H2A     15.1967  -0.6604  -7.6423   H         1 RES1   0.0000
    53 C4A      7.3714   2.8657  -1.2641   C.2       1 RES1   0.0000
    54 H3A      6.7276   2.7869  -1.9579   H         1 RES1   0.0000
    55 C5A     11.0750   3.2553  -3.9309   C.2       1 RES1   0.0000
    56 H4A     10.6309   3.1744  -4.7660   H         1 RES1   0.0000
    57 C6A     10.1666   7.2299  -0.5507   C.2       1 RES1   0.0000
    58 H5A     10.6426   7.6295   0.1672   H         1 RES1   0.0000
    59 C7A      8.4380   2.7168   0.6376   C.2       1 RES1   0.0000
    60 H6A      8.6559   2.4945   1.5355   H         1 RES1   0.0000
    61 C8A      7.2471   2.3432  -0.0071   C.2       1 RES1   0.0000
    62 H7A      6.5219   1.8432   0.3485   H         1 RES1   0.0000
    63 C9A      9.3580   7.9309  -1.4592   C.2       1 RES1   0.0000
    64 H8A      9.1771   8.8633  -1.4806   H         1 RES1   0.0000
    65 C10A    16.8792   0.3848  -7.1655   C.ar      1 RES1   0.0000
    66 H9A     17.4581  -0.0503  -7.7799   H         1 RES1   0.0000
    67 C11A     8.8889   6.9626  -2.3070   C.2       1 RES1   0.0000
    68 H10A     8.3074   7.1110  -3.0438   H         1 RES1   0.0000
    69 C12A    17.3469   1.4161  -6.3540   C.ar      1 RES1   0.0000
    70 H11A    18.2501   1.7005  -6.4340   H         1 RES1   0.0000
    71 C13A    14.7293   0.5543  -6.1428   C.ar      1 RES1   0.0000
    72 H12A    13.8346   0.2478  -6.0532   H         1 RES1   0.0000
    73 C14A    15.2059   1.5811  -5.3233   C.ar      1 RES1   0.0000
    74 C15A    16.5348   2.0203  -5.4527   C.ar      1 RES1   0.0000
    75 H13A    16.8596   2.7322  -4.9147   H         1 RES1   0.0000
    76 B1A      9.1608   4.3554  -2.4848   B         1 RES1   0.0000
    77 H14A     8.5258   4.3687  -3.3650   H         1 RES1   0.0000
@<TRIPOS>BOND
     1     1     3    1
     2     2     7    1
     3     3     5    1
     4     4     1    1
     5     5    17    1
     6     6     4    1
     7     7     1    1
     8     8     9    2
     9     9    35    1
    10    10     8    1
    11    11     3    2
    12    12    11    1
    13    13    14    1
    14    15     2    1
    15    16    15    1
    16    17    10    2
    17    18    17    1
    18    19     4    2
    19    20    19    1
    20    21     7    2
    21    22    21    1
    22    23    15    2
    23    24    23    1
    24    25    19    1
    25    26    25    1
    26    27    13   ar
    27    28    27    1
    28    29     6    1
    29    30    29    1
    30    31    27   ar
    31    32    31    1
    32    33    13   ar
    33    34    33    1
    34    35    33   ar
    35    36    31   ar
    36    37    36    1
    37    38     2    1
    38    39    38    1
    39    40    45    1
    40    41     1    1
    41    42     1    1
    42    43    41    1
    43    44    42    1
    44    45     1    1
    45    46    47    2
    46    47    73    1
    47    48    46    1
    48    49    41    2
    49    50    49    1
    50    51    52    1
    51    53    40    1
    52    54    53    1
    53    55    43    1
    54    56    55    1
    55    57    42    2
    56    58    57    1
    57    59    45    2
    58    60    59    1
    59    61    53    2
    60    62    61    1
    61    63    57    1
    62    64    63    1
    63    65    51   ar
    64    66    65    1
    65    67    44    1
    66    68    67    1
    67    69    65   ar
    68    70    69    1
    69    71    51   ar
    70    72    71    1
    71    73    71   ar
    72    74    69   ar
    73    75    74    1
    74    76    40    1
    75    77    76    1
    76     5    38    1
    77     6    38    1
    78    10    11    1
    79    21    23    1
    80    25    29    2
    81    35    36   ar
    82    43    76    1
    83    44    76    1
    84    48    49    1
    85    48    55    2
    86    59    61    1
    87    63    67    2
    88    73    74   ar
@<TRIPOS>SUBSTRUCTURE
     1 RES1        1 GROUP             0 ****  ****    0  
@<TRIPOS>CRYSIN
    8.9370    9.5580   10.2000   87.7860   82.2680   64.7200     2     1
