@<TRIPOS>MOLECULE
ZORXAF
    41    40     5     0     0
SMALL
USER_CHARGES
****
Generated from the CSD

@<TRIPOS>ATOM
     1 Fe1      8.8641   4.4673   5.6835   Fe        1 RES1   2.0000
     2 P1       8.6856   6.6043   6.5576   P.3       1 RES1   0.0000
     3 P2       8.1273   3.7696   7.8034   P.3       1 RES1   0.0000
     4 P3      10.9608   4.5148   6.6997   P.3       1 RES1   0.0000
     5 P4       6.7279   4.0596   4.9299   P.3       1 RES1   0.0000
     6 P5       9.2649   5.3583   3.6272   P.3       1 RES1   0.0000
     7 P6       9.4115   2.4674   4.6980   P.3       1 RES1   0.0000
     8 C1       9.9384   7.8081   6.0131   C.3       1 RES1   0.0000
     9 C2       7.1990   7.6183   6.3883   C.3       1 RES1   0.0000
    10 C3       8.9229   6.7431   8.4002   C.3       1 RES1   0.0000
    11 C4       9.8372   5.7168   9.0936   C.3       1 RES1   0.0000
    12 C5       9.1131   4.3847   9.2527   C.3       1 RES1   0.0000
    13 C6       7.9912   1.9859   8.3206   C.3       1 RES1   0.0000
    14 C7       6.4715   4.3390   8.3661   C.3       1 RES1   0.0000
    15 C8      11.1022   5.5499   8.2411   C.3       1 RES1   0.0000
    16 C9      11.5994   2.8857   7.3544   C.3       1 RES1   0.0000
    17 C10     12.4771   5.0877   5.8540   C.3       1 RES1   0.0000
    18 C11     10.2123   6.2388  10.4463   C.3       1 RES1   0.0000
    19 C12      5.3286   5.1984   5.1265   C.3       1 RES1   0.0000
    20 C13      5.8992   2.4990   5.5016   C.3       1 RES1   0.0000
    21 C14      6.5953   3.7503   3.1146   C.3       1 RES1   0.0000
    22 C15      7.8150   3.1493   2.4212   C.3       1 RES1   0.0000
    23 C16      8.8828   4.2301   2.1825   C.3       1 RES1   0.0000
    24 C17     10.8893   5.9804   3.0464   C.3       1 RES1   0.0000
    25 C18      8.2355   6.8170   3.1487   C.3       1 RES1   0.0000
    26 C19      8.3733   2.0087   3.2396   C.3       1 RES1   0.0000
    27 C20     11.0568   2.3725   3.9330   C.3       1 RES1   0.0000
    28 C21      9.4359   0.8383   5.5812   C.3       1 RES1   0.0000
    29 C22      7.3631   2.6133   1.0117   C.3       1 RES1   0.0000
    30 F1       5.5205   8.6148   3.5692   F         2 RES2   0.0000
    31 F2       3.2959   8.1403   3.5351   F         2 RES2   0.0000
    32 F3       4.7110   7.0261   2.2166   F         2 RES2   0.0000
    33 F4       4.2486   9.2299   1.8415   F         2 RES2   0.0000
    34 B1       4.4318   8.2774   2.7963   B         2 RES2  -1.0000
    35 F5       5.8294  -2.6379   5.5016   F         3 RES3   0.0000
    36 F6       6.6965  -0.8980   4.4104   F         3 RES3   0.0000
    37 F7       6.5639  -0.8383   6.5701   F         3 RES3   0.0000
    38 F8       4.8069  -0.7223   5.5016   F         3 RES3   0.0000
    39 B2       6.0196  -1.3356   5.4903   B         3 RES3  -1.0000
    40 O1       4.3620   0.7961   8.3206   O.3       4 RES4   0.0000
    41 O2       6.4767   6.4760  11.3670   O.3       5 RES5   0.0000
@<TRIPOS>BOND
     1     1     2    1
     2     2     8    1
     3     3     1    1
     4     4     1    1
     5     5     1    1
     6     6     1    1
     7     7     1    1
     8     9     2    1
     9    10     2    1
    10    11    10    1
    11    12     3    1
    12    13     3    1
    13    14     3    1
    14    15     4    1
    15    16     4    1
    16    17     4    1
    17    18    11    1
    18    19     5    1
    19    20     5    1
    20    21     5    1
    21    22    21    1
    22    23     6    1
    23    24     6    1
    24    25     6    1
    25    26     7    1
    26    27     7    1
    27    28     7    1
    28    29    22    1
    29    11    12    1
    30    11    15    1
    31    22    23    1
    32    22    26    1
    33    30    34    1
    34    31    34    1
    35    32    34    1
    36    33    34    1
    37    35    39    1
    38    36    39    1
    39    37    39    1
    40    38    39    1
@<TRIPOS>SUBSTRUCTURE
     1 RES1        1 GROUP             0 ****  ****    0  
     2 RES2       30 GROUP             0 ****  ****    0  
     3 RES3       35 GROUP             0 ****  ****    0  
     4 RES4       40 GROUP             0 ****  ****    0  
     5 RES5       41 GROUP             0 ****  ****    0  
@<TRIPOS>CRYSIN
   17.4480   17.5740   11.3670   90.0000   90.0000   90.0000    29     1
