@<TRIPOS>MOLECULE
ZOVRIL
   109   114     1     0     0
SMALL
NO_CHARGES
****
Generated from the CSD

@<TRIPOS>ATOM
     1 Fe1     17.5203   1.8230  15.0594   Fe        1 RES1   0.0000
     2 O1      17.7360   0.0721  16.0250   O.2       1 RES1   0.0000
     3 O2      18.7613   0.8586  13.8264   O.2       1 RES1   0.0000
     4 C1      18.7230  -0.6131  15.6061   C.2       1 RES1   0.0000
     5 C2      19.3389  -0.1652  14.3531   C.2       1 RES1   0.0000
     6 C3      20.4776  -0.7923  13.7985   C.2       1 RES1   0.0000
     7 C4      20.9400  -1.8673  14.4968   C.2       1 RES1   0.0000
     8 C5      20.3277  -2.3419  15.6819   C.2       1 RES1   0.0000
     9 C6      19.2457  -1.7753  16.2764   C.2       1 RES1   0.0000
    10 C7      18.6371  -2.2791  17.5733   C.3       1 RES1   0.0000
    11 C8      17.1822  -2.6083  17.3299   C.3       1 RES1   0.0000
    12 C9      18.7120  -1.2018  18.6267   C.3       1 RES1   0.0000
    13 C10     19.3188  -3.5181  18.0761   C.3       1 RES1   0.0000
    14 C11     21.1191  -0.2629  12.5295   C.3       1 RES1   0.0000
    15 C12     20.0956  -0.3164  11.3963   C.3       1 RES1   0.0000
    16 C13     21.5998   1.1611  12.7530   C.3       1 RES1   0.0000
    17 C14     22.3418  -1.1029  12.1225   C.3       1 RES1   0.0000
    18 O3      15.8937   1.7276  13.9461   O.2       1 RES1   0.0000
    19 O4      16.1788   2.6968  16.2445   O.2       1 RES1   0.0000
    20 C15     14.9945   2.5409  14.2933   C.2       1 RES1   0.0000
    21 C16     15.1589   3.1249  15.6220   C.2       1 RES1   0.0000
    22 C17     14.2762   4.1138  16.1527   C.2       1 RES1   0.0000
    23 C18     13.2307   4.4128  15.3188   C.2       1 RES1   0.0000
    24 C19     13.0425   3.8718  14.0618   C.2       1 RES1   0.0000
    25 C20     13.8905   2.9609  13.4713   C.2       1 RES1   0.0000
    26 C21     14.5138   4.7641  17.4815   C.3       1 RES1   0.0000
    27 C22     15.8919   5.3924  17.5094   C.3       1 RES1   0.0000
    28 C23     14.4516   3.7415  18.5988   C.3       1 RES1   0.0000
    29 C24     13.5268   5.8554  17.7967   C.3       1 RES1   0.0000
    30 C25     13.7589   2.4594  12.0467   C.3       1 RES1   0.0000
    31 C26     13.6493   0.9191  12.0427   C.3       1 RES1   0.0000
    32 C27     14.9762   2.8783  11.2447   C.3       1 RES1   0.0000
    33 C28     12.5398   3.0295  11.3484   C.3       1 RES1   0.0000
    34 O5      17.9827   3.5053  14.0419   O.2       1 RES1   0.0000
    35 O6      19.0337   2.5851  16.1527   O.2       1 RES1   0.0000
    36 C29     18.9953   4.1650  14.4768   C.2       1 RES1   0.0000
    37 C30     19.5747   3.6461  15.7018   C.2       1 RES1   0.0000
    38 C31     20.6950   4.2929  16.3163   C.2       1 RES1   0.0000
    39 C32     21.1538   5.3900  15.6659   C.2       1 RES1   0.0000
    40 C33     20.5744   5.8647  14.4648   C.2       1 RES1   0.0000
    41 C34     19.5326   5.2911  13.8264   C.2       1 RES1   0.0000
    42 C35     21.2781   3.7555  17.6092   C.3       1 RES1   0.0000
    43 C36     20.2308   3.7520  18.6906   C.3       1 RES1   0.0000
    44 C37     22.4460   4.6024  18.0761   C.3       1 RES1   0.0000
    45 C38     21.7880   2.3268  17.3937   C.3       1 RES1   0.0000
    46 C39     18.9752   5.7821  12.4976   C.3       1 RES1   0.0000
    47 C40     19.1214   4.7071  11.4601   C.3       1 RES1   0.0000
    48 C41     17.5148   6.1544  12.6493   C.3       1 RES1   0.0000
    49 C42     19.7209   7.0048  12.0028   C.3       1 RES1   0.0000
    50 H1      21.7149  -2.3256  14.1656   H         1 RES1   0.0000
    51 H2      20.7078  -3.1086  16.1168   H         1 RES1   0.0000
    52 H3      16.7235  -1.8347  16.9907   H         1 RES1   0.0000
    53 H4      17.1438  -3.3122  16.6795   H         1 RES1   0.0000
    54 H5      16.7600  -2.9015  18.1399   H         1 RES1   0.0000
    55 H6      18.2642  -0.4095  18.3235   H         1 RES1   0.0000
    56 H7      18.2953  -1.5147  19.4368   H         1 RES1   0.0000
    57 H8      19.6350  -1.0017  18.8023   H         1 RES1   0.0000
    58 H9      19.2804  -4.2220  17.4256   H         1 RES1   0.0000
    59 H10     20.2363  -3.2971  18.2556   H         1 RES1   0.0000
    60 H11     18.8966  -3.8101  18.8861   H         1 RES1   0.0000
    61 H12     19.3279   0.2106  11.6237   H         1 RES1   0.0000
    62 H13     20.4958   0.0349  10.5942   H         1 RES1   0.0000
    63 H14     19.8287  -1.2262  11.2447   H         1 RES1   0.0000
    64 H15     20.8577   1.7172  13.0004   H         1 RES1   0.0000
    65 H16     22.2541   1.1704  13.4553   H         1 RES1   0.0000
    66 H17     21.9945   1.4961  11.9430   H         1 RES1   0.0000
    67 H18     22.9888  -1.0808  12.8288   H         1 RES1   0.0000
    68 H19     22.0658  -2.0092  11.9669   H         1 RES1   0.0000
    69 H20     22.7329  -0.7481  11.3205   H         1 RES1   0.0000
    70 H21     12.5892   5.0538  15.6380   H         1 RES1   0.0000
    71 H22     12.2694   4.1405  13.5590   H         1 RES1   0.0000
    72 H23     16.5315   4.7001  17.3219   H         1 RES1   0.0000
    73 H24     15.9522   6.0729  16.8351   H         1 RES1   0.0000
    74 H25     16.0783   5.7763  18.3713   H         1 RES1   0.0000
    75 H26     13.5780   3.3471  18.6307   H         1 RES1   0.0000
    76 H27     15.1059   3.0574  18.4392   H         1 RES1   0.0000
    77 H28     14.6380   4.1731  19.4368   H         1 RES1   0.0000
    78 H29     12.6459   5.4785  17.7967   H         1 RES1   0.0000
    79 H30     13.7114   6.2393  18.6547   H         1 RES1   0.0000
    80 H31     13.5835   6.5371  17.1224   H         1 RES1   0.0000
    81 H32     14.4242   0.5468  12.4737   H         1 RES1   0.0000
    82 H33     12.8615   0.6666  12.5295   H         1 RES1   0.0000
    83 H34     13.5926   0.5864  11.1449   H         1 RES1   0.0000
    84 H35     15.0255   3.8369  11.2407   H         1 RES1   0.0000
    85 H36     15.7657   2.5176  11.6557   H         1 RES1   0.0000
    86 H37     14.9122   2.5583  10.3429   H         1 RES1   0.0000
    87 H38     12.5947   3.9870  11.3205   H         1 RES1   0.0000
    88 H39     12.4887   2.6863  10.4506   H         1 RES1   0.0000
    89 H40     11.7558   2.7666  11.8352   H         1 RES1   0.0000
    90 H41     21.8666   5.8868  16.0729   H         1 RES1   0.0000
    91 H42     20.9655   6.6395  14.0538   H         1 RES1   0.0000
    92 H43     19.4815   3.2249  18.4073   H         1 RES1   0.0000
    93 H44     20.5909   3.3843  19.5006   H         1 RES1   0.0000
    94 H45     19.9439   4.6548  18.8502   H         1 RES1   0.0000
    95 H46     22.1627   5.5052  18.2437   H         1 RES1   0.0000
    96 H47     22.8152   4.2313  18.8821   H         1 RES1   0.0000
    97 H48     23.1131   4.5989  17.3857   H         1 RES1   0.0000
    98 H49     21.0642   1.7637  17.1104   H         1 RES1   0.0000
    99 H50     22.4643   2.3466  16.7114   H         1 RES1   0.0000
   100 H51     22.1645   1.9789  18.2077   H         1 RES1   0.0000
   101 H52     20.0480   4.4733  11.3604   H         1 RES1   0.0000
   102 H53     18.6243   3.9358  11.7395   H         1 RES1   0.0000
   103 H54     18.7796   5.0224  10.6222   H         1 RES1   0.0000
   104 H55     17.0195   5.3912  12.9525   H         1 RES1   0.0000
   105 H56     17.4381   6.8641  13.2917   H         1 RES1   0.0000
   106 H57     17.1621   6.4476  11.8033   H         1 RES1   0.0000
   107 H58     20.6494   6.7873  11.8911   H         1 RES1   0.0000
   108 H59     19.3553   7.2934  11.1609   H         1 RES1   0.0000
   109 H60     19.6332   7.7099  12.6493   H         1 RES1   0.0000
@<TRIPOS>BOND
     1     1     2    1
     2     2     4    2
     3     3     1    1
     4     4     5    1
     5     5     3    2
     6     6     5    1
     7     7     6    2
     8     8     7    1
     9     9     4    1
    10    10     9    1
    11    11    10    1
    12    12    10    1
    13    13    10    1
    14    14     6    1
    15    15    14    1
    16    16    14    1
    17    17    14    1
    18    18     1    1
    19    19     1    1
    20    20    18    2
    21    21    19    2
    22    22    21    1
    23    23    22    2
    24    24    23    1
    25    25    20    1
    26    26    22    1
    27    27    26    1
    28    28    26    1
    29    29    26    1
    30    30    25    1
    31    31    30    1
    32    32    30    1
    33    33    30    1
    34    34     1    1
    35    35     1    1
    36    36    34    2
    37    37    35    2
    38    38    37    1
    39    39    38    2
    40    40    39    1
    41    41    36    1
    42    42    38    1
    43    43    42    1
    44    44    42    1
    45    45    42    1
    46    46    41    1
    47    47    46    1
    48    48    46    1
    49    49    46    1
    50    50     7    1
    51    51     8    1
    52    52    11    1
    53    53    11    1
    54    54    11    1
    55    55    12    1
    56    56    12    1
    57    57    12    1
    58    58    13    1
    59    59    13    1
    60    60    13    1
    61    61    15    1
    62    62    15    1
    63    63    15    1
    64    64    16    1
    65    65    16    1
    66    66    16    1
    67    67    17    1
    68    68    17    1
    69    69    17    1
    70    70    23    1
    71    71    24    1
    72    72    27    1
    73    73    27    1
    74    74    27    1
    75    75    28    1
    76    76    28    1
    77    77    28    1
    78    78    29    1
    79    79    29    1
    80    80    29    1
    81    81    31    1
    82    82    31    1
    83    83    31    1
    84    84    32    1
    85    85    32    1
    86    86    32    1
    87    87    33    1
    88    88    33    1
    89    89    33    1
    90    90    39    1
    91    91    40    1
    92    92    43    1
    93    93    43    1
    94    94    43    1
    95    95    44    1
    96    96    44    1
    97    97    44    1
    98    98    45    1
    99    99    45    1
   100   100    45    1
   101   101    47    1
   102   102    47    1
   103   103    47    1
   104   104    48    1
   105   105    48    1
   106   106    48    1
   107   107    49    1
   108   108    49    1
   109   109    49    1
   110     8     9    2
   111    20    21    1
   112    24    25    2
   113    36    37    1
   114    40    41    2
@<TRIPOS>SUBSTRUCTURE
     1 RES1        1 GROUP             0 ****  ****    0  
@<TRIPOS>CRYSIN
   18.2770   11.6340   39.9030   90.0000   90.0000   90.0000    61     1
