@<TRIPOS>MOLECULE
ZUCROE01
    97   106     1     0     0
SMALL
NO_CHARGES
****
Generated from the CSD

@<TRIPOS>ATOM
     1 Fe1      9.2770   0.0000   0.0000   Fe        1 RES1   0.0000
     2 N1       8.8203   2.0256   0.0862   N.2       1 RES1   0.0000
     3 N2       7.9261   2.7746   0.7783   N.2       1 RES1   0.0000
     4 N3       8.7818   3.9740  -0.8680   N.pl3     1 RES1   0.0000
     5 N4       7.7670  -0.3361  -1.5037   N.1       1 RES1   0.0000
     6 N5       4.3243  -2.2000  -3.5087   N.1       1 RES1   0.0000
     7 N6      13.1248  -4.9278  -5.5665   N.1       1 RES1   0.0000
     8 N7       7.2139   6.2125  -0.0621   N.ar      1 RES1   0.0000
     9 N8       9.9561  -6.8995  -7.7496   N.1       1 RES1   0.0000
    10 N9       9.0930   4.9771  -1.7808   N.3       1 RES1   0.0000
    11 N10     10.5090   0.8236  -1.5129   N.ar      1 RES1   0.0000
    12 C1       7.9439   3.9397   0.1908   C.2       1 RES1   0.0000
    13 C2       9.3350   2.7203  -0.9151   C.2       1 RES1   0.0000
    14 C3       7.7706  -2.6396  -4.0616   C.2       1 RES1   0.0000
    15 C4       9.1601  -2.4343  -3.8972   C.2       1 RES1   0.0000
    16 C5      10.0972  -3.2267  -4.5721   C.2       1 RES1   0.0000
    17 C6       7.0887   5.1038   0.6334   C.ar      1 RES1   0.0000
    18 C7       6.2163   4.8883   1.7072   C.ar      1 RES1   0.0000
    19 C8       5.4045   5.9640   2.0797   C.ar      1 RES1   0.0000
    20 C9       5.5012   7.1335   1.3267   C.ar      1 RES1   0.0000
    21 C10      6.4141   7.2868   0.3173   C.ar      1 RES1   0.0000
    22 C11      9.6265  -4.2271  -5.4872   C.2       1 RES1   0.0000
    23 C12      8.2713  -4.4269  -5.6102   C.2       1 RES1   0.0000
    24 C13     10.3397   2.1184  -1.8337   C.ar      1 RES1   0.0000
    25 C14     11.0147   2.7977  -2.8028   C.ar      1 RES1   0.0000
    26 C15     11.9059   2.0556  -3.5661   C.ar      1 RES1   0.0000
    27 C16     12.1139   0.7349  -3.2810   C.ar      1 RES1   0.0000
    28 C17     11.4214   0.1375  -2.2544   C.ar      1 RES1   0.0000
    29 C18      7.3377  -3.6803  -4.9641   C.2       1 RES1   0.0000
    30 C19      6.8307  -1.8615  -3.3305   C.2       1 RES1   0.0000
    31 C20     10.6281  -5.0044  -6.1367   C.2       1 RES1   0.0000
    32 C21      7.3023  -0.9853  -2.3016   C.1       1 RES1   0.0000
    33 C22      5.4325  -2.0450  -3.4224   C.1       1 RES1   0.0000
    34 C23     12.0147  -4.9698  -5.8206   C.1       1 RES1   0.0000
    35 C24     10.2476  -6.0413  -7.0449   C.1       1 RES1   0.0000
    36 H1       9.4783  -1.7222  -3.3052   H         1 RES1   0.0000
    37 H2      11.0563  -3.0981  -4.4169   H         1 RES1   0.0000
    38 H3       6.1485   4.0153   2.1487   H         1 RES1   0.0000
    39 H4       4.8142   5.9032   2.8603   H         1 RES1   0.0000
    40 H5       4.8945   7.8746   1.5313   H         1 RES1   0.0000
    41 H6       6.4977   8.1424  -0.1529   H         1 RES1   0.0000
    42 H7       8.5864   5.7833  -1.3864   H         1 RES1   0.0000
    43 H8       8.7077   4.6680  -2.5016   H         1 RES1   0.0000
    44 H9       7.9648  -5.1486  -6.1965   H         1 RES1   0.0000
    45 H10     10.8437   3.7448  -2.9879   H         1 RES1   0.0000
    46 H11     12.4005   2.4899  -4.2962   H         1 RES1   0.0000
    47 H12     12.7798   0.2228  -3.7869   H         1 RES1   0.0000
    48 H13     11.5695  -0.8139  -2.0728   H         1 RES1   0.0000
    49 H14      6.3816  -3.8336  -5.1147   H         1 RES1   0.0000
    50 N1A      9.7337  -2.0256  -0.0862   N.2       1 RES1   0.0000
    51 N2A     10.6279  -2.7746  -0.7783   N.2       1 RES1   0.0000
    52 C1A     10.6101  -3.9397  -0.1908   C.2       1 RES1   0.0000
    53 N3A      9.7722  -3.9740   0.8680   N.pl3     1 RES1   0.0000
    54 N9A      9.4610  -4.9771   1.7808   N.3       1 RES1   0.0000
    55 H7A      9.9676  -5.7833   1.3864   H         1 RES1   0.0000
    56 H8A      9.8463  -4.6680   2.5016   H         1 RES1   0.0000
    57 C2A      9.2190  -2.7203   0.9151   C.2       1 RES1   0.0000
    58 C13A     8.2143  -2.1184   1.8337   C.ar      1 RES1   0.0000
    59 N10A     8.0450  -0.8236   1.5129   N.ar      1 RES1   0.0000
    60 N4A     10.7870   0.3361   1.5037   N.1       1 RES1   0.0000
    61 C21A    11.2517   0.9853   2.3016   C.1       1 RES1   0.0000
    62 C19A    11.7233   1.8615   3.3305   C.2       1 RES1   0.0000
    63 C3A     10.7834   2.6396   4.0616   C.2       1 RES1   0.0000
    64 C4A      9.3939   2.4343   3.8972   C.2       1 RES1   0.0000
    65 C5A      8.4568   3.2267   4.5721   C.2       1 RES1   0.0000
    66 C11A     8.9275   4.2271   5.4872   C.2       1 RES1   0.0000
    67 C12A    10.2827   4.4269   5.6102   C.2       1 RES1   0.0000
    68 C18A    11.2163   3.6803   4.9641   C.2       1 RES1   0.0000
    69 H14A    12.1724   3.8336   5.1147   H         1 RES1   0.0000
    70 H9A     10.5892   5.1486   6.1965   H         1 RES1   0.0000
    71 C20A     7.9259   5.0044   6.1367   C.2       1 RES1   0.0000
    72 C23A     6.5393   4.9698   5.8206   C.1       1 RES1   0.0000
    73 N6A      5.4292   4.9278   5.5665   N.1       1 RES1   0.0000
    74 C24A     8.3064   6.0413   7.0449   C.1       1 RES1   0.0000
    75 N8A      8.5979   6.8995   7.7496   N.1       1 RES1   0.0000
    76 H2A      7.4977   3.0981   4.4169   H         1 RES1   0.0000
    77 H1A      9.0757   1.7222   3.3052   H         1 RES1   0.0000
    78 C22A    13.1215   2.0450   3.4224   C.1       1 RES1   0.0000
    79 N5A     14.2297   2.2000   3.5087   N.1       1 RES1   0.0000
    80 C17A     7.1326  -0.1375   2.2544   C.ar      1 RES1   0.0000
    81 C16A     6.4401  -0.7349   3.2810   C.ar      1 RES1   0.0000
    82 C15A     6.6481  -2.0556   3.5661   C.ar      1 RES1   0.0000
    83 C14A     7.5393  -2.7977   2.8028   C.ar      1 RES1   0.0000
    84 H10A     7.7103  -3.7448   2.9879   H         1 RES1   0.0000
    85 H11A     6.1535  -2.4899   4.2962   H         1 RES1   0.0000
    86 H12A     5.7742  -0.2228   3.7869   H         1 RES1   0.0000
    87 H13A     6.9845   0.8139   2.0728   H         1 RES1   0.0000
    88 C6A     11.4653  -5.1038  -0.6334   C.ar      1 RES1   0.0000
    89 N7A     11.3401  -6.2125   0.0621   N.ar      1 RES1   0.0000
    90 C10A    12.1399  -7.2868  -0.3173   C.ar      1 RES1   0.0000
    91 C9A     13.0528  -7.1335  -1.3267   C.ar      1 RES1   0.0000
    92 C8A     13.1495  -5.9640  -2.0797   C.ar      1 RES1   0.0000
    93 C7A     12.3377  -4.8883  -1.7072   C.ar      1 RES1   0.0000
    94 H3A     12.4055  -4.0153  -2.1487   H         1 RES1   0.0000
    95 H4A     13.7398  -5.9032  -2.8603   H         1 RES1   0.0000
    96 H5A     13.6595  -7.8746  -1.5313   H         1 RES1   0.0000
    97 H6A     12.0563  -8.1424   0.1529   H         1 RES1   0.0000
@<TRIPOS>BOND
     1     1     2    1
     2     2     3    1
     3     3    12    2
     4     4    10    1
     5     5     1    1
     6     6    33    3
     7     7    34    3
     8     8    17   ar
     9     9    35    3
    10    10    42    1
    11    11     1    1
    12    12     4    1
    13    13     2    2
    14    14    15    1
    15    15    16    2
    16    16    22    1
    17    17    12    1
    18    18    17   ar
    19    19    18   ar
    20    20    19   ar
    21    21     8   ar
    22    22    23    1
    23    23    29    2
    24    24    11   ar
    25    25    24   ar
    26    26    25   ar
    27    27    26   ar
    28    28    11   ar
    29    29    14    1
    30    30    14    2
    31    31    22    2
    32    32     5    3
    33    33    30    1
    34    34    31    1
    35    35    31    1
    36    36    15    1
    37    37    16    1
    38    38    18    1
    39    39    19    1
    40    40    20    1
    41    41    21    1
    42    43    10    1
    43    44    23    1
    44    45    25    1
    45    46    26    1
    46    47    27    1
    47    48    28    1
    48    49    29    1
    49    50     1    1
    50    51    50    1
    51    52    51    2
    52    53    52    1
    53    54    53    1
    54    55    54    1
    55    56    54    1
    56    57    50    2
    57    58    57    1
    58    59     1    1
    59    60     1    1
    60    61    60    3
    61    62    61    1
    62    63    62    2
    63    64    63    1
    64    65    64    2
    65    66    65    1
    66    67    66    1
    67    68    63    1
    68    69    68    1
    69    70    67    1
    70    71    66    2
    71    72    71    1
    72    73    72    3
    73    74    71    1
    74    75    74    3
    75    76    65    1
    76    77    64    1
    77    78    62    1
    78    79    78    3
    79    80    59   ar
    80    81    80   ar
    81    82    81   ar
    82    83    58   ar
    83    84    83    1
    84    85    82    1
    85    86    81    1
    86    87    80    1
    87    88    52    1
    88    89    88   ar
    89    90    89   ar
    90    91    90   ar
    91    92    91   ar
    92    93    88   ar
    93    94    93    1
    94    95    92    1
    95    96    91    1
    96    97    90    1
    97     4    13    1
    98    13    24    1
    99    20    21   ar
   100    27    28   ar
   101    30    32    1
   102    53    57    1
   103    58    59   ar
   104    67    68    2
   105    82    83   ar
   106    92    93   ar
@<TRIPOS>SUBSTRUCTURE
     1 RES1        1 GROUP             0 ****  ****    0  
@<TRIPOS>CRYSIN
    9.2770    9.8760   12.2720   69.5200   86.9200   81.7300     2     1
