@<TRIPOS>MOLECULE
ZUCROE
    97   106     1     0     0
SMALL
NO_CHARGES
****
Generated from the CSD

@<TRIPOS>ATOM
     1 Fe1      9.2360   0.0000   0.0000   Fe        1 RES1   0.0000
     2 N1       8.6837   1.8984   0.0250   N.2       1 RES1   0.0000
     3 N2       7.7896   2.6304   0.7287   N.2       1 RES1   0.0000
     4 N3       8.6852   3.9127  -0.8116   N.pl3     1 RES1   0.0000
     5 N4      10.5091   0.4456   1.3745   N.1       1 RES1   0.0000
     6 N5      14.0521   2.1928   3.4233   N.1       1 RES1   0.0000
     7 N6       5.3277   4.8725   5.5220   N.1       1 RES1   0.0000
     8 N7       7.0923   6.1060  -0.0352   N.ar      1 RES1   0.0000
     9 N8       8.4681   6.9144   7.6933   N.1       1 RES1   0.0000
    10 N9       9.0011   4.9124  -1.7502   N.3       1 RES1   0.0000
    11 N10     10.4381   0.7249  -1.4551   N.ar      1 RES1   0.0000
    12 C1       7.8423   3.8090   0.1998   C.2       1 RES1   0.0000
    13 C2       9.2568   2.6113  -0.9183   C.2       1 RES1   0.0000
    14 C3      10.6509   2.6217   4.0181   C.2       1 RES1   0.0000
    15 C4       9.2504   2.4423   3.8728   C.2       1 RES1   0.0000
    16 C5       8.3346   3.1891   4.4959   C.2       1 RES1   0.0000
    17 C6       6.9531   4.9773   0.6776   C.ar      1 RES1   0.0000
    18 C7       6.0767   4.7407   1.7082   C.ar      1 RES1   0.0000
    19 C8       5.2698   5.7974   2.0987   C.ar      1 RES1   0.0000
    20 C9       5.3468   7.0063   1.3768   C.ar      1 RES1   0.0000
    21 C10      6.2648   7.1189   0.3485   C.ar      1 RES1   0.0000
    22 C11      8.7713   4.2175   5.4391   C.2       1 RES1   0.0000
    23 C12     10.1403   4.4573   5.5436   C.2       1 RES1   0.0000
    24 C13     10.3017   2.0416  -1.7956   C.ar      1 RES1   0.0000
    25 C14     10.9640   2.6675  -2.7684   C.ar      1 RES1   0.0000
    26 C15     11.8908   1.9518  -3.4903   C.ar      1 RES1   0.0000
    27 C16     12.0655   0.6174  -3.1611   C.ar      1 RES1   0.0000
    28 C17     11.3860   0.0785  -2.1101   C.ar      1 RES1   0.0000
    29 C18     11.0486   3.6878   4.9034   C.2       1 RES1   0.0000
    30 C19     11.6071   1.8548   3.2621   C.2       1 RES1   0.0000
    31 C20      7.7552   4.9959   6.1031   C.2       1 RES1   0.0000
    32 C21     11.0726   1.0029   2.1884   C.1       1 RES1   0.0000
    33 C22     12.9737   2.0413   3.3370   C.1       1 RES1   0.0000
    34 C23      6.3996   4.9330   5.7978   C.1       1 RES1   0.0000
    35 C24      8.1859   6.0469   6.9839   C.1       1 RES1   0.0000
    36 H1       8.9046   1.6536   3.2224   H         1 RES1   0.0000
    37 H2       7.2833   3.0365   4.3018   H         1 RES1   0.0000
    38 H3       6.0295   3.7819   2.1963   H         1 RES1   0.0000
    39 H4       4.5931   5.6944   2.9330   H         1 RES1   0.0000
    40 H5       4.7078   7.8292   1.6254   H         1 RES1   0.0000
    41 H6       6.3272   8.0590  -0.1793   H         1 RES1   0.0000
    42 H7       8.4834   5.7076  -1.3609   H         1 RES1   0.0000
    43 H8       8.6264   4.6027  -2.4619   H         1 RES1   0.0000
    44 H9      10.4852   5.2796   6.1531   H         1 RES1   0.0000
    45 H10     10.7783   3.7099  -2.9806   H         1 RES1   0.0000
    46 H11     12.4619   2.4128  -4.2814   H         1 RES1   0.0000
    47 H12     12.7393   0.0025  -3.7400   H         1 RES1   0.0000
    48 H13     11.6346  -0.9249  -1.7968   H         1 RES1   0.0000
    49 H14     12.0984   3.8769   5.0566   H         1 RES1   0.0000
    50 N1A      9.7883  -1.8984  -0.0250   N.2       1 RES1   0.0000
    51 N2A     10.6824  -2.6304  -0.7287   N.2       1 RES1   0.0000
    52 C1A     10.6297  -3.8090  -0.1998   C.2       1 RES1   0.0000
    53 N3A      9.7868  -3.9127   0.8116   N.pl3     1 RES1   0.0000
    54 N9A      9.4709  -4.9124   1.7502   N.3       1 RES1   0.0000
    55 H7A      9.9886  -5.7076   1.3609   H         1 RES1   0.0000
    56 H8A      9.8456  -4.6027   2.4619   H         1 RES1   0.0000
    57 C2A      9.2152  -2.6113   0.9183   C.2       1 RES1   0.0000
    58 C13A     8.1703  -2.0416   1.7956   C.ar      1 RES1   0.0000
    59 N10A     8.0339  -0.7249   1.4551   N.ar      1 RES1   0.0000
    60 N4A      7.9629  -0.4456  -1.3745   N.1       1 RES1   0.0000
    61 C21A     7.3994  -1.0029  -2.1884   C.1       1 RES1   0.0000
    62 C19A     6.8649  -1.8548  -3.2621   C.2       1 RES1   0.0000
    63 C3A      7.8211  -2.6217  -4.0181   C.2       1 RES1   0.0000
    64 C4A      9.2216  -2.4423  -3.8728   C.2       1 RES1   0.0000
    65 C5A     10.1374  -3.1891  -4.4959   C.2       1 RES1   0.0000
    66 C11A     9.7007  -4.2175  -5.4391   C.2       1 RES1   0.0000
    67 C12A     8.3317  -4.4573  -5.5436   C.2       1 RES1   0.0000
    68 C18A     7.4234  -3.6878  -4.9034   C.2       1 RES1   0.0000
    69 H14A     6.3736  -3.8769  -5.0566   H         1 RES1   0.0000
    70 H9A      7.9868  -5.2796  -6.1531   H         1 RES1   0.0000
    71 C20A    10.7168  -4.9959  -6.1031   C.2       1 RES1   0.0000
    72 C23A    12.0724  -4.9330  -5.7978   C.1       1 RES1   0.0000
    73 N6A     13.1443  -4.8725  -5.5220   N.1       1 RES1   0.0000
    74 C24A    10.2861  -6.0469  -6.9839   C.1       1 RES1   0.0000
    75 N8A     10.0039  -6.9144  -7.6933   N.1       1 RES1   0.0000
    76 H2A     11.1887  -3.0365  -4.3018   H         1 RES1   0.0000
    77 H1A      9.5674  -1.6536  -3.2224   H         1 RES1   0.0000
    78 C22A     5.4983  -2.0413  -3.3370   C.1       1 RES1   0.0000
    79 N5A      4.4199  -2.1928  -3.4233   N.1       1 RES1   0.0000
    80 C17A     7.0860  -0.0785   2.1101   C.ar      1 RES1   0.0000
    81 C16A     6.4065  -0.6174   3.1611   C.ar      1 RES1   0.0000
    82 C15A     6.5812  -1.9518   3.4903   C.ar      1 RES1   0.0000
    83 C14A     7.5080  -2.6675   2.7684   C.ar      1 RES1   0.0000
    84 H10A     7.6937  -3.7099   2.9806   H         1 RES1   0.0000
    85 H11A     6.0101  -2.4128   4.2814   H         1 RES1   0.0000
    86 H12A     5.7327  -0.0025   3.7400   H         1 RES1   0.0000
    87 H13A     6.8374   0.9249   1.7968   H         1 RES1   0.0000
    88 C6A     11.5189  -4.9773  -0.6776   C.ar      1 RES1   0.0000
    89 N7A     11.3797  -6.1060   0.0352   N.ar      1 RES1   0.0000
    90 C10A    12.2072  -7.1189  -0.3485   C.ar      1 RES1   0.0000
    91 C9A     13.1252  -7.0063  -1.3768   C.ar      1 RES1   0.0000
    92 C8A     13.2022  -5.7974  -2.0987   C.ar      1 RES1   0.0000
    93 C7A     12.3953  -4.7407  -1.7082   C.ar      1 RES1   0.0000
    94 H3A     12.4425  -3.7819  -2.1963   H         1 RES1   0.0000
    95 H4A     13.8789  -5.6944  -2.9330   H         1 RES1   0.0000
    96 H5A     13.7642  -7.8292  -1.6254   H         1 RES1   0.0000
    97 H6A     12.1448  -8.0590   0.1793   H         1 RES1   0.0000
@<TRIPOS>BOND
     1     1     2    1
     2     2     3    1
     3     3    12    2
     4     4    10    1
     5     5     1    1
     6     6    33    3
     7     7    34    3
     8     8    17   ar
     9     9    35    3
    10    10    42    1
    11    11     1    1
    12    12     4    1
    13    13     2    2
    14    14    15    1
    15    15    16    2
    16    16    22    1
    17    17    12    1
    18    18    17   ar
    19    19    18   ar
    20    20    19   ar
    21    21     8   ar
    22    22    23    1
    23    23    29    2
    24    24    11   ar
    25    25    24   ar
    26    26    25   ar
    27    27    26   ar
    28    28    11   ar
    29    29    14    1
    30    30    14    2
    31    31    22    2
    32    32     5    3
    33    33    30    1
    34    34    31    1
    35    35    31    1
    36    36    15    1
    37    37    16    1
    38    38    18    1
    39    39    19    1
    40    40    20    1
    41    41    21    1
    42    43    10    1
    43    44    23    1
    44    45    25    1
    45    46    26    1
    46    47    27    1
    47    48    28    1
    48    49    29    1
    49    50     1    1
    50    51    50    1
    51    52    51    2
    52    53    52    1
    53    54    53    1
    54    55    54    1
    55    56    54    1
    56    57    50    2
    57    58    57    1
    58    59     1    1
    59    60     1    1
    60    61    60    3
    61    62    61    1
    62    63    62    2
    63    64    63    1
    64    65    64    2
    65    66    65    1
    66    67    66    1
    67    68    63    1
    68    69    68    1
    69    70    67    1
    70    71    66    2
    71    72    71    1
    72    73    72    3
    73    74    71    1
    74    75    74    3
    75    76    65    1
    76    77    64    1
    77    78    62    1
    78    79    78    3
    79    80    59   ar
    80    81    80   ar
    81    82    81   ar
    82    83    58   ar
    83    84    83    1
    84    85    82    1
    85    86    81    1
    86    87    80    1
    87    88    52    1
    88    89    88   ar
    89    90    89   ar
    90    91    90   ar
    91    92    91   ar
    92    93    88   ar
    93    94    93    1
    94    95    92    1
    95    96    91    1
    96    97    90    1
    97     4    13    1
    98    13    24    1
    99    20    21   ar
   100    27    28   ar
   101    30    32    1
   102    53    57    1
   103    58    59   ar
   104    67    68    2
   105    82    83   ar
   106    92    93   ar
@<TRIPOS>SUBSTRUCTURE
     1 RES1        1 GROUP             0 ****  ****    0  
@<TRIPOS>CRYSIN
    9.2360    9.6844   12.1370   69.2610   87.5250   82.3770     2     1
