@<TRIPOS>MOLECULE
ZUFRUN
    45    51     4     0     0
SMALL
NO_CHARGES
****
Generated from the CSD

@<TRIPOS>ATOM
     1 Fe1      4.0763   4.6813  12.6410   Fe        1 RES1   0.0000
     2 O1       3.1703   5.2368  11.0743   O.3       1 RES1   0.0000
     3 O2       3.0354   5.6988  13.9099   O.3       1 RES1   0.0000
     4 O3       3.1980   3.0183  12.9323   O.3       1 RES1   0.0000
     5 N1       5.6581   3.8568  11.3260   N.3       1 RES1   0.0000
     6 N2       5.5126   6.3742  12.6359   N.3       1 RES1   0.0000
     7 N3       5.5999   4.0159  14.1221   N.3       1 RES1   0.0000
     8 N4       4.5127   4.0353   7.9536   N.ar      1 RES1   0.0000
     9 N5       4.5709   8.7850  14.9425   N.ar      1 RES1   0.0000
    10 N6       4.8288   0.7939  15.2479   N.ar      1 RES1   0.0000
    11 C1       6.5865   4.9554  10.9260   C.3       1 RES1   0.0000
    12 C2       6.0972   6.3238  11.2327   C.3       1 RES1   0.0000
    13 C3       6.5601   6.2364  13.6608   C.3       1 RES1   0.0000
    14 C4       6.1898   5.2504  14.7342   C.3       1 RES1   0.0000
    15 C5       6.7453   3.2570  13.4435   C.3       1 RES1   0.0000
    16 C6       6.3220   2.7931  12.0634   C.3       1 RES1   0.0000
    17 C7       4.9862   3.2454  10.1721   C.3       1 RES1   0.0000
    18 C8       4.2588   4.2023   9.2776   C.ar      1 RES1   0.0000
    19 C9       3.3330   5.0874   9.7887   C.ar      1 RES1   0.0000
    20 C10      2.5658   5.8269   8.8047   C.ar      1 RES1   0.0000
    21 C11      2.8304   5.6328   7.4757   C.ar      1 RES1   0.0000
    22 C12      3.7297   4.7419   7.0796   C.ar      1 RES1   0.0000
    23 C13      4.1530   4.5225   5.6100   C.3       1 RES1   0.0000
    24 C14      4.7693   7.6456  12.8046   C.3       1 RES1   0.0000
    25 C15      4.1662   7.7562  14.1847   C.ar      1 RES1   0.0000
    26 C16      3.2933   6.7450  14.6447   C.ar      1 RES1   0.0000
    27 C17      2.7378   6.9119  15.9226   C.ar      1 RES1   0.0000
    28 C18      3.1213   7.9756  16.6638   C.ar      1 RES1   0.0000
    29 C19      4.0736   8.8937  16.1782   C.ar      1 RES1   0.0000
    30 C20      4.5630  10.0621  17.0344   C.3       1 RES1   0.0000
    31 C21      4.9465   3.2182  15.1303   C.3       1 RES1   0.0000
    32 C22      4.4267   1.9235  14.6192   C.ar      1 RES1   0.0000
    33 C23      3.5181   1.9041  13.5330   C.ar      1 RES1   0.0000
    34 C24      3.0023   0.6774  13.1879   C.ar      1 RES1   0.0000
    35 C25      3.4520  -0.4717  13.7885   C.ar      1 RES1   0.0000
    36 C26      4.3778  -0.3863  14.7981   C.ar      1 RES1   0.0000
    37 C27      4.9598  -1.5955  15.4754   C.3       1 RES1   0.0000
    38 O4       6.4556   0.8560   4.8892   O.3       2 RES2   0.0000
    39 O5       6.8775   2.4748   7.1179   O.3       3 RES3   0.0000
    40 C28      0.5423   2.4282   5.3672   C.ar      4 RES4   0.0000
    41 C29      1.4628   1.8323   4.5110   C.ar      4 RES4   0.0000
    42 C30      1.0713   0.7783   3.6804   C.ar      4 RES4   0.0000
    43 C31     -0.2513   0.3203   3.7059   C.ar      4 RES4   0.0000
    44 C32     -1.1718   0.9181   4.5621   C.ar      4 RES4   0.0000
    45 C33     -0.7803   1.9721   5.3927   C.ar      4 RES4   0.0000
@<TRIPOS>BOND
     1     1     2    1
     2     2    19    1
     3     3     1    1
     4     4     1    1
     5     5     1    1
     6     6     1    1
     7     7     1    1
     8     8    18   ar
     9     9    25   ar
    10    10    32   ar
    11    11     5    1
    12    12     6    1
    13    13     6    1
    14    14     7    1
    15    15     7    1
    16    16     5    1
    17    17     5    1
    18    18    17    1
    19    19    18   ar
    20    20    19   ar
    21    21    20   ar
    22    22     8   ar
    23    23    22    1
    24    24     6    1
    25    25    24    1
    26    26     3    1
    27    27    26   ar
    28    28    27   ar
    29    29     9   ar
    30    30    29    1
    31    31     7    1
    32    32    31    1
    33    33     4    1
    34    34    33   ar
    35    35    34   ar
    36    36    10   ar
    37    37    36    1
    38    11    12    1
    39    13    14    1
    40    15    16    1
    41    21    22   ar
    42    25    26   ar
    43    28    29   ar
    44    32    33   ar
    45    35    36   ar
    46    40    41   ar
    47    41    42   ar
    48    42    43   ar
    49    43    44   ar
    50    44    45   ar
    51    45    40   ar
@<TRIPOS>SUBSTRUCTURE
     1 RES1        1 GROUP             0 ****  ****    0  
     2 RES2       38 GROUP             0 ****  ****    0  
     3 RES3       39 GROUP             0 ****  ****    0  
     4 RES4       40 GROUP             0 ****  ****    0  
@<TRIPOS>CRYSIN
   13.2260   19.4100   12.7790   90.0000   90.0000   90.0000    19     1
