@<TRIPOS>MOLECULE
ZUMREE
   154   167     4     0     0
SMALL
NO_CHARGES
****
Generated from the CSD

@<TRIPOS>ATOM
     1 Fe1     14.9032   2.4873   1.3052   Fe        1 RES1   0.0000
     2 N1      16.5831   3.6421   1.4199   N.2       1 RES1   0.0000
     3 N2      15.4165   1.6267   2.9818   N.2       1 RES1   0.0000
     4 N3      13.2891   1.3001   1.1517   N.2       1 RES1   0.0000
     5 N4      14.4540   3.3011  -0.4237   N.2       1 RES1   0.0000
     6 N5      15.9311   1.0324   0.2975   N.2       1 RES1   0.0000
     7 N6      16.7948  -0.9241  -0.2344   N.pl3     1 RES1   0.0000
     8 O1      17.6091   5.2400   5.1725   O.3       1 RES1   0.0000
     9 O2      13.6502   6.2836   6.2859   O.3       1 RES1   0.0000
    10 O3      13.3470   8.3245   5.3956   O.2       1 RES1   0.0000
    11 O4      12.5122   0.5130   5.6954   O.3       1 RES1   0.0000
    12 O5      10.4241   2.9044   5.9027   O.3       1 RES1   0.0000
    13 O6       8.8931   2.8933   4.2484   O.2       1 RES1   0.0000
    14 O7      10.3965   3.9479  -1.4605   O.3       1 RES1   0.0000
    15 O8       9.4613   3.8603   1.5439   O.3       1 RES1   0.0000
    16 O9       7.6914   4.9963   2.3462   O.2       1 RES1   0.0000
    17 O10     15.0691   7.6091  -0.6874   O.3       1 RES1   0.0000
    18 O11     13.2454   8.1269   2.5017   O.3       1 RES1   0.0000
    19 O12     11.4773   9.4333   2.8894   O.2       1 RES1   0.0000
    20 O13     13.4118   4.5342   2.7316   O.2       1 RES1   0.0000
    21 C1      16.9304   4.6203   0.5139   C.2       1 RES1   0.0000
    22 C2      18.1119   5.2353   1.0210   C.2       1 RES1   0.0000
    23 C3      18.4446   4.6840   2.1839   C.2       1 RES1   0.0000
    24 C4      17.4443   3.6707   2.4634   C.2       1 RES1   0.0000
    25 C5      17.4554   2.8741   3.5678   C.2       1 RES1   0.0000
    26 C6      16.4814   1.8640   3.8089   C.2       1 RES1   0.0000
    27 C7      16.5399   1.0244   4.9493   C.2       1 RES1   0.0000
    28 C8      15.4416   0.1944   4.8412   C.2       1 RES1   0.0000
    29 C9      14.7297   0.5544   3.6534   C.2       1 RES1   0.0000
    30 C10     13.5618  -0.0143   3.2320   C.2       1 RES1   0.0000
    31 C11     12.8770   0.3170   2.0825   C.2       1 RES1   0.0000
    32 C12     11.6191  -0.2039   1.6430   C.2       1 RES1   0.0000
    33 C13     11.2937   0.3409   0.4801   C.2       1 RES1   0.0000
    34 C14     12.3776   1.3096   0.1510   C.2       1 RES1   0.0000
    35 C15     12.3797   2.0648  -0.9827   C.2       1 RES1   0.0000
    36 C16     13.4078   3.0382  -1.2689   C.2       1 RES1   0.0000
    37 C17     13.3904   3.8189  -2.4566   C.2       1 RES1   0.0000
    38 C18     14.5088   4.6362  -2.3304   C.2       1 RES1   0.0000
    39 C19     15.1591   4.3431  -1.0863   C.2       1 RES1   0.0000
    40 C20     16.2841   4.9421  -0.6243   C.2       1 RES1   0.0000
    41 C21     18.4938   3.1115   4.5842   C.ar      1 RES1   0.0000
    42 C22     18.5497   4.2570   5.3686   C.ar      1 RES1   0.0000
    43 C23     19.5807   4.5135   6.2498   C.ar      1 RES1   0.0000
    44 C24     20.5807   3.6229   6.4188   C.ar      1 RES1   0.0000
    45 C25     20.5925   2.4806   5.6638   C.ar      1 RES1   0.0000
    46 C26     19.5601   2.2369   4.7510   C.ar      1 RES1   0.0000
    47 C27     13.0029  -1.1105   4.1154   C.ar      1 RES1   0.0000
    48 C28     12.4776  -0.7934   5.3911   C.ar      1 RES1   0.0000
    49 C29     12.0303  -1.8178   6.1957   C.ar      1 RES1   0.0000
    50 C30     11.9903  -3.1099   5.7404   C.ar      1 RES1   0.0000
    51 C31     12.4253  -3.4684   4.4670   C.ar      1 RES1   0.0000
    52 C32     12.9538  -2.4057   3.6512   C.ar      1 RES1   0.0000
    53 C33     11.3338   1.8688  -1.9879   C.ar      1 RES1   0.0000
    54 C34     10.3185   2.8104  -2.2448   C.ar      1 RES1   0.0000
    55 C35      9.3770   2.5953  -3.2117   C.ar      1 RES1   0.0000
    56 C36      9.3628   1.4387  -3.9419   C.ar      1 RES1   0.0000
    57 C37     10.3121   0.4652  -3.7098   C.ar      1 RES1   0.0000
    58 C38     11.2997   0.7042  -2.7496   C.ar      1 RES1   0.0000
    59 C39     16.8131   6.0653  -1.4762   C.ar      1 RES1   0.0000
    60 C40     16.2208   7.2937  -1.5416   C.ar      1 RES1   0.0000
    61 C41     16.6301   8.2942  -2.4048   C.ar      1 RES1   0.0000
    62 C42     17.7770   8.0552  -3.1756   C.ar      1 RES1   0.0000
    63 C43     18.4042   6.8539  -3.1057   C.ar      1 RES1   0.0000
    64 C44     17.9729   5.8566  -2.2538   C.ar      1 RES1   0.0000
    65 C45     11.9539   6.5242   4.7307   C.ar      1 RES1   0.0000
    66 C46     11.3995   5.3101   5.1409   C.ar      1 RES1   0.0000
    67 C47     10.3831   4.7111   4.4062   C.ar      1 RES1   0.0000
    68 C48      9.8966   5.3308   3.3131   C.ar      1 RES1   0.0000
    69 C49     10.3910   6.5799   2.8443   C.ar      1 RES1   0.0000
    70 C50     11.4550   7.1375   3.5993   C.ar      1 RES1   0.0000
    71 C51     16.4589   5.1906   6.0560   C.3       1 RES1   0.0000
    72 C52     16.0742   6.6532   6.3129   C.3       1 RES1   0.0000
    73 C53     14.7412   6.7902   7.0905   C.3       1 RES1   0.0000
    74 C54     13.0272   7.1471   5.4790   C.2       1 RES1   0.0000
    75 C55     12.3156   0.9607   7.0431   C.3       1 RES1   0.0000
    76 C56     10.7801   1.0802   7.3925   C.3       1 RES1   0.0000
    77 C57      9.9449   1.5789   6.3377   C.3       1 RES1   0.0000
    78 C58      9.8080   3.4286   4.8502   C.2       1 RES1   0.0000
    79 C59      9.1889   4.7047  -1.2486   C.3       1 RES1   0.0000
    80 C60      8.1161   3.8922  -0.5071   C.3       1 RES1   0.0000
    81 C61      8.6129   3.1227   0.6446   C.3       1 RES1   0.0000
    82 C62      8.8773   4.7509   2.3823   C.2       1 RES1   0.0000
    83 C63     15.4845   7.5980   0.7753   C.3       1 RES1   0.0000
    84 C64     14.9963   8.9394   1.3297   C.3       1 RES1   0.0000
    85 C65     13.8742   9.2278   1.7625   C.3       1 RES1   0.0000
    86 C66     12.0176   8.4153   2.9863   C.2       1 RES1   0.0000
    87 C67     13.9825   3.7424   2.2087   C.1       1 RES1   0.0000
    88 C68     16.0904  -0.1721   0.6491   C.2       1 RES1   0.0000
    89 C69     16.6431   1.1583  -0.8835   C.2       1 RES1   0.0000
    90 C70     17.1487  -0.0319  -1.2238   C.2       1 RES1   0.0000
    91 C71     17.1493  -2.3245  -0.1600   C.3       1 RES1   0.0000
    92 H1      18.5891   5.9347   0.5927   H         1 RES1   0.0000
    93 H2      19.1909   4.9086   2.7271   H         1 RES1   0.0000
    94 H3      17.1940   1.0292   5.6368   H         1 RES1   0.0000
    95 H4      15.1995  -0.4939   5.4497   H         1 RES1   0.0000
    96 H5      11.0970  -0.8428   2.1141   H         1 RES1   0.0000
    97 H6      10.5232   0.1498  -0.0406   H         1 RES1   0.0000
    98 H7      12.7624   3.7902  -3.1688   H         1 RES1   0.0000
    99 H8      14.7953   5.2831  -2.9637   H         1 RES1   0.0000
   100 H9      19.5852   5.3245   6.7456   H         1 RES1   0.0000
   101 H10     21.2686   3.7870   7.0544   H         1 RES1   0.0000
   102 H11     21.3023   1.8545   5.7585   H         1 RES1   0.0000
   103 H12     19.5891   1.4434   4.2281   H         1 RES1   0.0000
   104 H13     11.7441  -1.6267   7.0792   H         1 RES1   0.0000
   105 H14     11.6529  -3.7870   6.3152   H         1 RES1   0.0000
   106 H15     12.3761  -4.3638   4.1538   H         1 RES1   0.0000
   107 H16     13.2749  -2.6017   2.7767   H         1 RES1   0.0000
   108 H17      8.7197   3.2613  -3.3784   H         1 RES1   0.0000
   109 H18      8.6973   1.3048  -4.6068   H         1 RES1   0.0000
   110 H19     10.2964  -0.3521  -4.1943   H         1 RES1   0.0000
   111 H20     11.9721   0.0478  -2.6099   H         1 RES1   0.0000
   112 H21     16.1521   9.1131  -2.4747   H         1 RES1   0.0000
   113 H22     18.1143   8.7339  -3.7481   H         1 RES1   0.0000
   114 H23     19.1613   6.6946  -3.6557   H         1 RES1   0.0000
   115 H24     18.4511   5.0377  -2.1907   H         1 RES1   0.0000
   116 H25     11.7206   4.8895   5.9298   H         1 RES1   0.0000
   117 H26     10.0327   7.0133   2.0780   H         1 RES1   0.0000
   118 H27     16.6909   4.7366   6.9034   H         1 RES1   0.0000
   119 H28     15.7112   4.7047   5.6255   H         1 RES1   0.0000
   120 H29     15.9918   7.1248   5.4452   H         1 RES1   0.0000
   121 H30     16.7950   7.0929   6.8290   H         1 RES1   0.0000
   122 H31     14.7962   6.2820   7.9401   H         1 RES1   0.0000
   123 H32     14.5798   7.7430   7.3113   H         1 RES1   0.0000
   124 H33     12.7470   1.8433   7.1603   H         1 RES1   0.0000
   125 H34     12.7458   0.3250   7.6674   H         1 RES1   0.0000
   126 H35     10.4505   0.1848   7.6584   H         1 RES1   0.0000
   127 H36     10.6831   1.6760   8.1768   H         1 RES1   0.0000
   128 H37      9.0103   1.6506   6.6577   H         1 RES1   0.0000
   129 H38      9.9624   0.9495   5.5737   H         1 RES1   0.0000
   130 H39      8.8302   4.9947  -2.1253   H         1 RES1   0.0000
   131 H40      9.4011   5.5173  -0.7235   H         1 RES1   0.0000
   132 H41      7.4119   4.5135  -0.1916   H         1 RES1   0.0000
   133 H42      7.6954   3.2661  -1.1494   H         1 RES1   0.0000
   134 H43      7.8361   2.7801   1.1539   H         1 RES1   0.0000
   135 H44      9.1167   2.3404   0.3065   H         1 RES1   0.0000
   136 H45     16.4689   7.5215   0.8587   H         1 RES1   0.0000
   137 H46     15.0636   6.8412   1.2531   H         1 RES1   0.0000
   138 H47     15.6128   9.1529   2.0735   H         1 RES1   0.0000
   139 H48     15.1714   9.6022   0.6311   H         1 RES1   0.0000
   140 H49     13.2929   9.4795   1.0007   H         1 RES1   0.0000
   141 H50     13.9492  10.0149   2.3597   H         1 RES1   0.0000
   142 H51     15.7443  -0.5226   1.4605   H         1 RES1   0.0000
   143 H52     16.7546   1.9628  -1.3748   H         1 RES1   0.0000
   144 H53     17.6582  -0.2262  -2.0014   H         1 RES1   0.0000
   145 H54     16.9936  -2.6606   0.7438   H         1 RES1   0.0000
   146 H55     18.0955  -2.4344  -0.3831   H         1 RES1   0.0000
   147 H56     16.6087  -2.8343  -0.7888   H         1 RES1   0.0000
   148 C72      4.9846   3.4588   1.9721   C.3       2 RES2   0.0000
   149 Cl1      4.9750   2.3372   0.6153   Cl        2 RES2   0.0000
   150 Cl2      4.4772   2.6128   3.2860   Cl        2 RES2   0.0000
   151 Cl3      4.0013   4.7637   1.6633   Cl        2 RES2   0.0000
   152 H57      5.9202   3.7791   2.1276   H         2 RES2   0.0000
   153 O14     12.2169   6.3362  -0.5094   O.3       3 RES3   0.0000
   154 O15      7.7959   7.5996   0.4395   O.3       4 RES4   0.0000
@<TRIPOS>BOND
     1     1     2    1
     2     2    21    1
     3     3     1    1
     4     4     1    1
     5     5     1    1
     6     6     1    1
     7     7    88    1
     8     8    42    1
     9     9    73    1
    10    10    74    2
    11    11    48    1
    12    12    77    1
    13    13    78    2
    14    14    54    1
    15    15    81    1
    16    16    82    2
    17    17    60    1
    18    18    85    1
    19    19    86    2
    20    20    87    3
    21    21    22    1
    22    22    23    2
    23    23    24    1
    24    24     2    2
    25    25    24    1
    26    26     3    1
    27    27    26    1
    28    28    27    2
    29    29     3    1
    30    30    29    2
    31    31     4    2
    32    32    31    1
    33    33    32    2
    34    34     4    1
    35    35    34    2
    36    36     5    1
    37    37    36    2
    38    38    37    1
    39    39     5    1
    40    40    21    2
    41    41    25    1
    42    42    41   ar
    43    43    42   ar
    44    44    43   ar
    45    45    44   ar
    46    46    41   ar
    47    47    30    1
    48    48    47   ar
    49    49    48   ar
    50    50    49   ar
    51    51    50   ar
    52    52    47   ar
    53    53    35    1
    54    54    53   ar
    55    55    54   ar
    56    56    55   ar
    57    57    56   ar
    58    58    53   ar
    59    59    40    1
    60    60    59   ar
    61    61    60   ar
    62    62    61   ar
    63    63    62   ar
    64    64    59   ar
    65    65    66   ar
    66    66    67   ar
    67    67    68   ar
    68    68    69   ar
    69    69    70   ar
    70    70    65   ar
    71    71     8    1
    72    72    71    1
    73    73    72    1
    74    74     9    1
    75    75    11    1
    76    76    75    1
    77    77    76    1
    78    78    12    1
    79    79    14    1
    80    80    79    1
    81    81    80    1
    82    82    15    1
    83    83    17    1
    84    84    83    1
    85    85    84    1
    86    86    18    1
    87    87     1    1
    88    88     6    2
    89    89     6    1
    90    90     7    1
    91    91     7    1
    92    92    22    1
    93    93    23    1
    94    94    27    1
    95    95    28    1
    96    96    32    1
    97    97    33    1
    98    98    37    1
    99    99    38    1
   100   100    43    1
   101   101    44    1
   102   102    45    1
   103   103    46    1
   104   104    49    1
   105   105    50    1
   106   106    51    1
   107   107    52    1
   108   108    55    1
   109   109    56    1
   110   110    57    1
   111   111    58    1
   112   112    61    1
   113   113    62    1
   114   114    63    1
   115   115    64    1
   116   116    66    1
   117   117    69    1
   118   118    71    1
   119   119    71    1
   120   120    72    1
   121   121    72    1
   122   122    73    1
   123   123    73    1
   124   124    75    1
   125   125    75    1
   126   126    76    1
   127   127    76    1
   128   128    77    1
   129   129    77    1
   130   130    79    1
   131   131    79    1
   132   132    80    1
   133   133    80    1
   134   134    81    1
   135   135    81    1
   136   136    83    1
   137   137    83    1
   138   138    84    1
   139   139    84    1
   140   140    85    1
   141   141    85    1
   142   142    88    1
   143   143    89    1
   144   144    90    1
   145   145    91    1
   146   146    91    1
   147   147    91    1
   148    25    26    2
   149    28    29    1
   150    30    31    1
   151    33    34    1
   152    35    36    1
   153    38    39    2
   154    39    40    1
   155    45    46   ar
   156    51    52   ar
   157    57    58   ar
   158    63    64   ar
   159    65    74    1
   160    67    78    1
   161    68    82    1
   162    70    86    1
   163    89    90    2
   164   148   149    1
   165   150   148    1
   166   151   148    1
   167   152   148    1
@<TRIPOS>SUBSTRUCTURE
     1 RES1        1 GROUP             0 ****  ****    0  
     2 RES2      148 GROUP             0 ****  ****    0  
     3 RES3      153 GROUP             0 ****  ****    0  
     4 RES4      154 GROUP             0 ****  ****    0  
@<TRIPOS>CRYSIN
   18.4220   15.9320   22.5400   90.0000   90.7600   90.0000    14     1
