@<TRIPOS>MOLECULE
ZURWUE
   108   114     4     0     0
SMALL
USER_CHARGES
****
Generated from the CSD

@<TRIPOS>ATOM
     1 Fe1      1.2678   2.7012   3.4982   Fe        1 RES1   0.0000
     2 O1       0.4625   0.6561   5.2777   O.2       1 RES1   0.0000
     3 O2       2.1913   5.8291   1.1569   O.co2     1 RES1   0.0000
     4 O3       1.3074   4.1579   2.2501   O.co2     1 RES1   0.0000
     5 O4       0.6113   0.6968   1.6419   O.2       1 RES1   0.0000
     6 O5       2.3213   4.7332   6.7372   O.co2     1 RES1   0.0000
     7 O6       2.1191   3.5982   4.9114   O.co2     1 RES1  -1.0000
     8 N1       2.9743   2.0939   2.9480   N.2       1 RES1   0.0000
     9 N2       3.3400   0.9440   3.4287   N.2       1 RES1   0.0000
    10 N3       1.3444   1.0834   4.5045   N.2       1 RES1   0.0000
    11 N4      -0.4535   3.2735   4.0180   N.2       1 RES1   0.0000
    12 N5      -1.4803   2.6642   3.5344   N.2       1 RES1   0.0000
    13 N6       0.1767   1.5873   2.4166   N.2       1 RES1   0.0000
    14 C1       2.3213   4.7373   1.7143   C.2       1 RES1   0.0000
    15 C2       3.6744   4.0590   1.6912   C.ar      1 RES1   0.0000
    16 C3       4.6967   4.7573   1.0570   C.ar      1 RES1   0.0000
    17 C4       5.9548   4.2409   0.9513   C.ar      1 RES1   0.0000
    18 C5       6.2436   2.9999   1.4972   C.ar      1 RES1   0.0000
    19 C6       5.2449   2.2873   2.1183   C.ar      1 RES1   0.0000
    20 C7       3.9736   2.8075   2.2327   C.ar      1 RES1   0.0000
    21 C8       2.4683   0.3628   4.2598   C.2       1 RES1   0.0000
    22 C9       2.7624  -0.9444   4.8737   C.ar      1 RES1   0.0000
    23 C10      2.8126  -1.0868   6.2101   C.ar      1 RES1   0.0000
    24 C11      3.2114  -2.2747   6.8183   C.ar      1 RES1   0.0000
    25 C12      3.5487  -3.3227   6.0697   C.ar      1 RES1   0.0000
    26 C13      3.4743  -3.2558   4.6782   C.ar      1 RES1   0.0000
    27 C14      3.8113  -4.3712   3.8602   C.ar      1 RES1   0.0000
    28 C15      3.6663  -4.2971   2.5368   C.ar      1 RES1   0.0000
    29 C16      3.2107  -3.1432   1.9286   C.ar      1 RES1   0.0000
    30 C17      2.8941  -2.0453   2.6700   C.ar      1 RES1   0.0000
    31 C18      3.0455  -2.0676   4.0513   C.ar      1 RES1   0.0000
    32 C19      1.6462   4.3737   5.7888   C.2       1 RES1   0.0000
    33 C20      0.2390   4.9044   5.6527   C.ar      1 RES1   0.0000
    34 C21     -0.1053   5.9807   6.4505   C.ar      1 RES1   0.0000
    35 C22     -1.3688   6.5222   6.4013   C.ar      1 RES1   0.0000
    36 C23     -2.3172   5.9935   5.5962   C.ar      1 RES1   0.0000
    37 C24     -2.0168   4.9134   4.7854   C.ar      1 RES1   0.0000
    38 C25     -0.7546   4.4006   4.8477   C.ar      1 RES1   0.0000
    39 C26     -1.1545   1.7038   2.6758   C.2       1 RES1   0.0000
    40 C27     -2.2038   0.8078   2.1733   C.ar      1 RES1   0.0000
    41 C28     -2.2659   0.5336   0.8369   C.ar      1 RES1   0.0000
    42 C29     -3.3004  -0.2655   0.3330   C.ar      1 RES1   0.0000
    43 C30     -4.2251  -0.8097   1.1410   C.ar      1 RES1   0.0000
    44 C31     -4.1855  -0.6055   2.5324   C.ar      1 RES1   0.0000
    45 C32     -5.1200  -1.2171   3.3925   C.ar      1 RES1   0.0000
    46 C33     -5.0467  -1.0477   4.7275   C.ar      1 RES1   0.0000
    47 C34     -4.0003  -0.2618   5.2342   C.ar      1 RES1   0.0000
    48 C35     -3.1019   0.3478   4.4451   C.ar      1 RES1   0.0000
    49 C36     -3.1424   0.2078   3.0479   C.ar      1 RES1   0.0000
    50 H1       4.5133   5.6218   0.6834   H         1 RES1   0.0000
    51 H2       6.6545   4.7496   0.5357   H         1 RES1   0.0000
    52 H3       7.1139   2.6080   1.3886   H         1 RES1   0.0000
    53 H4       5.4372   1.4382   2.5223   H         1 RES1   0.0000
    54 H5       2.5446  -0.3419   6.7546   H         1 RES1   0.0000
    55 H6       3.2531  -2.3241   7.7768   H         1 RES1   0.0000
    56 H7       3.8381  -4.1316   6.4983   H         1 RES1   0.0000
    57 H8       4.1133  -5.1825   4.2743   H         1 RES1   0.0000
    58 H9       3.9210  -5.0446   1.9909   H         1 RES1   0.0000
    59 H10      3.0909  -3.1227   0.9759   H         1 RES1   0.0000
    60 H11      2.5648  -1.2522   2.2399   H         1 RES1   0.0000
    61 H12      0.5380   6.3437   7.0630   H         1 RES1   0.0000
    62 H13     -1.5843   7.2735   6.9587   H         1 RES1   0.0000
    63 H14     -3.1929   6.3855   5.5658   H         1 RES1   0.0000
    64 H15     -2.6740   4.5318   4.1975   H         1 RES1   0.0000
    65 H16     -1.6001   0.8908   0.2447   H         1 RES1   0.0000
    66 H17     -3.3520  -0.4390  -0.6096   H         1 RES1   0.0000
    67 H18     -4.9299  -1.3416   0.7645   H         1 RES1   0.0000
    68 H19     -5.8070  -1.7739   3.0189   H         1 RES1   0.0000
    69 H20     -5.7057  -1.4272   5.3139   H         1 RES1   0.0000
    70 H21     -3.8989  -0.1761   6.1841   H         1 RES1   0.0000
    71 H22     -2.4205   0.8965   4.8404   H         1 RES1   0.0000
    72 C37      5.2985   3.3268   5.5571   C.3       2 RES2   0.0000
    73 Cl1      6.3476   2.9441   6.8299   Cl        2 RES2   0.0000
    74 Cl2      5.7591   4.7705   4.6782   Cl        2 RES2   0.0000
    75 H23      4.4087   3.4293   5.9017   H         2 RES2   0.0000
    76 H24      5.2968   2.5905   4.9418   H         2 RES2   0.0000
    77 O7       3.3774   7.6746  -0.8181   O.3       3 RES3   0.0000
    78 H25      3.5704   7.6595   0.1216   H         3 RES3   0.0000
    79 H26      2.5549   8.1119  -1.0497   H         3 RES3   0.0000
    80 N7      12.6794   9.0937   3.3997   N.4       4 RES4   1.0000
    81 C38     12.7025  10.3057   2.4904   C.3       4 RES4   0.0000
    82 C39     12.9600  10.0547   1.0700   C.3       4 RES4   0.0000
    83 C40     14.1091   8.4519   3.3910   C.3       4 RES4   0.0000
    84 C41     14.2982   7.3324   4.3409   C.3       4 RES4   0.0000
    85 C42     12.3064   9.5562   4.7695   C.3       4 RES4   0.0000
    86 C43     13.2180  10.5199   5.4326   C.3       4 RES4   0.0000
    87 C44     11.6771   8.0478   2.9480   C.3       4 RES4   0.0000
    88 C45     10.2817   8.5295   2.7308   C.3       4 RES4   0.0000
    89 H27     13.3710  10.9141   2.8119   H         4 RES4   0.0000
    90 H28     11.8524  10.7479   2.5527   H         4 RES4   0.0000
    91 H29     12.9578  10.8721   0.5661   H         4 RES4   0.0000
    92 H30     13.8187   9.6337   0.9918   H         4 RES4   0.0000
    93 H31     12.2822   9.4661   0.7298   H         4 RES4   0.0000
    94 H32     14.7384   9.1372   3.6256   H         4 RES4   0.0000
    95 H33     14.3107   8.1599   2.4991   H         4 RES4   0.0000
    96 H34     15.1981   7.0028   4.2859   H         4 RES4   0.0000
    97 H35     14.1187   7.6217   5.2386   H         4 RES4   0.0000
    98 H36     13.6854   6.6341   4.1005   H         4 RES4   0.0000
    99 H37     12.2470   8.7787   5.3298   H         4 RES4   0.0000
   100 H38     11.4292   9.9405   4.7202   H         4 RES4   0.0000
   101 H39     12.8710  10.7322   6.3014   H         4 RES4   0.0000
   102 H40     14.0973  10.1430   5.5224   H         4 RES4   0.0000
   103 H41     13.2668  11.3193   4.9027   H         4 RES4   0.0000
   104 H42     11.6455   7.3454   3.6010   H         4 RES4   0.0000
   105 H43     12.0053   7.6673   2.1299   H         4 RES4   0.0000
   106 H44      9.7231   7.8056   2.4369   H         4 RES4   0.0000
   107 H45      9.9326   8.8890   3.5503   H         4 RES4   0.0000
   108 H46     10.2965   9.2151   2.0604   H         4 RES4   0.0000
@<TRIPOS>BOND
     1     1     4    1
     2     2    10    2
     3     3    14    2
     4     4    14    1
     5     5    13    2
     6     6    32    2
     7     7     1    1
     8     8     1    1
     9     9     8    1
    10    10     1    1
    11    11     1    1
    12    12    11    1
    13    13     1    1
    14    14    15    1
    15    15    16   ar
    16    16    17   ar
    17    17    18   ar
    18    18    19   ar
    19    19    20   ar
    20    20     8    1
    21    21     9    2
    22    22    21    1
    23    23    22   ar
    24    24    23   ar
    25    25    24   ar
    26    26    25   ar
    27    27    26   ar
    28    28    27   ar
    29    29    28   ar
    30    30    29   ar
    31    31    22   ar
    32    32     7    1
    33    33    32    1
    34    34    33   ar
    35    35    34   ar
    36    36    35   ar
    37    37    36   ar
    38    38    11    1
    39    39    12    2
    40    40    39    1
    41    41    40   ar
    42    42    41   ar
    43    43    42   ar
    44    44    43   ar
    45    45    44   ar
    46    46    45   ar
    47    47    46   ar
    48    48    47   ar
    49    49    40   ar
    50    50    16    1
    51    51    17    1
    52    52    18    1
    53    53    19    1
    54    54    23    1
    55    55    24    1
    56    56    25    1
    57    57    27    1
    58    58    28    1
    59    59    29    1
    60    60    30    1
    61    61    34    1
    62    62    35    1
    63    63    36    1
    64    64    37    1
    65    65    41    1
    66    66    42    1
    67    67    43    1
    68    68    45    1
    69    69    46    1
    70    70    47    1
    71    71    48    1
    72    10    21    1
    73    13    39    1
    74    15    20   ar
    75    26    31   ar
    76    30    31   ar
    77    33    38   ar
    78    37    38   ar
    79    44    49   ar
    80    48    49   ar
    81    72    73    1
    82    74    72    1
    83    75    72    1
    84    76    72    1
    85    77    78    1
    86    79    77    1
    87    80    81    1
    88    81    82    1
    89    82    91    1
    90    83    80    1
    91    84    83    1
    92    85    80    1
    93    86    85    1
    94    87    80    1
    95    88    87    1
    96    89    81    1
    97    90    81    1
    98    92    82    1
    99    93    82    1
   100    94    83    1
   101    95    83    1
   102    96    84    1
   103    97    84    1
   104    98    84    1
   105    99    85    1
   106   100    85    1
   107   101    86    1
   108   102    86    1
   109   103    86    1
   110   104    87    1
   111   105    87    1
   112   106    88    1
   113   107    88    1
   114   108    88    1
@<TRIPOS>SUBSTRUCTURE
     1 RES1        1 GROUP             0 ****  ****    0  
     2 RES2       72 GROUP             0 ****  ****    0  
     3 RES3       77 GROUP             0 ****  ****    0  
     4 RES4       80 GROUP             0 ****  ****    0  
@<TRIPOS>CRYSIN
   11.5390   13.3060   14.6000   89.3000   82.6500   79.9000     2     1
