@<TRIPOS>MOLECULE
ZUSKON
    92    88     8     0     0
SMALL
USER_CHARGES
****
Generated from the CSD

@<TRIPOS>ATOM
     1 I1       0.0000   0.0000   1.8016   I         1 RES1  -1.0000
     2 I2       8.1047   4.6727  -3.2860   I         2 RES2  -1.0000
     3 I3       6.1928   4.7204   1.2126   I         3 RES3  -1.0000
     4 O1       8.1047   4.6727   0.0453   O.3       4 RES4   0.0000
     5 O2      -0.0057   9.3553   7.4114   O.3       5 RES5   0.0000
     6 Fe1     -0.0057   9.3553   3.6000   Fe        6 RES6  -3.0000
     7 C1      -1.0467   8.1864   2.5244   C.1       6 RES6   0.0000
     8 C2       0.3986   7.9057   4.7144   C.1       6 RES6   0.0000
     9 N1      -1.7305   7.4511   1.9526   N.1       6 RES6   0.0000
    10 N2       0.6181   7.0652   5.5127   N.1       6 RES6   0.0000
    11 C1A      1.5352   9.0325   2.5244   C.1       6 RES6   0.0000
    12 N1A      2.5139   8.8080   1.9526   N.1       6 RES6   0.0000
    13 C1B     -0.4885  10.8455   2.5244   C.1       6 RES6   0.0000
    14 N1B     -0.7834  11.8053   1.9526   N.1       6 RES6   0.0000
    15 C2A      1.0556  10.4245   4.7144   C.1       6 RES6   0.0000
    16 N2A      1.6738  11.0349   5.5127   N.1       6 RES6   0.0000
    17 C2B     -1.4542   9.7341   4.7144   C.1       6 RES6   0.0000
    18 N2B     -2.2919   9.9643   5.5127   N.1       6 RES6   0.0000
    19 C3       5.8995   0.4154  -3.9484   C.ar      7 RES7   0.0000
    20 C4       6.3751  -0.8181  -4.4554   C.ar      7 RES7   0.0000
    21 C5       7.0969  -0.8700  -5.7500   C.ar      7 RES7   0.0000
    22 C6       7.1941   0.4238  -6.4620   C.ar      7 RES7   0.0000
    23 C7       6.0883   1.5449  -4.7359   C.ar      7 RES7   0.0000
    24 C8       6.9835   2.7503  -6.6454   C.3       7 RES7   0.0000
    25 C9       5.0683   0.4490  -2.7617   C.2       7 RES7   0.0000
    26 C10      3.3467   1.0258  -1.1759   C.3       7 RES7   0.0000
    27 C11      2.0400   0.3648  -1.8016   C.3       7 RES7   0.0000
    28 C12      2.9927   2.2255  -0.3992   C.3       7 RES7   0.0000
    29 C13      4.3124  -0.0491  -0.6041   C.3       7 RES7   0.0000
    30 C14      5.2255   0.5192   0.5070   C.3       7 RES7   0.0000
    31 C15      3.5647  -1.3752  -0.0432   C.3       7 RES7   0.0000
    32 N3       6.7558   1.4888  -5.8892   N.ar      7 RES7   1.0000
    33 N4       4.1407   1.3625  -2.4489   N.pl3     7 RES7   0.0000
    34 N5       5.1574  -0.3564  -1.7067   N.pl3     7 RES7   1.0000
    35 O3       3.7777   2.2690  -3.2202   O.3       7 RES7   0.0000
    36 O4       6.0170  -1.3709  -1.6387   O.3       7 RES7  -1.0000
    37 H1       6.9640  -1.6137  -4.5849   H         7 RES7   0.0000
    38 H2       8.0116  -0.4504  -5.7770   H         7 RES7   0.0000
    39 H3       7.8285  -0.2989  -6.7285   H         7 RES7   0.0000
    40 H4       5.7124   2.4206  -4.4317   H         7 RES7   0.0000
    41 H5       6.6027   3.5221  -6.1200   H         7 RES7   0.0000
    42 H6       7.9541   2.8934  -6.7857   H         7 RES7   0.0000
    43 H7       6.5136   2.6998  -7.5279   H         7 RES7   0.0000
    44 H8       2.2968  -0.4476  -2.3237   H         7 RES7   0.0000
    45 H9       1.4202   0.0968  -1.0594   H         7 RES7   0.0000
    46 H10      1.5863   1.0187  -2.3960   H         7 RES7   0.0000
    47 H11      3.8134   2.6338  -0.0108   H         7 RES7   0.0000
    48 H12      2.5325   2.8878  -0.9903   H         7 RES7   0.0000
    49 H13      2.3673   1.9645   0.3463   H         7 RES7   0.0000
    50 H14      5.6897   1.3345   0.1683   H         7 RES7   0.0000
    51 H15      4.6721   0.7479   1.3032   H         7 RES7   0.0000
    52 H16      5.9044  -0.1712   0.7573   H         7 RES7   0.0000
    53 H17      2.9757  -1.7498  -0.7530   H         7 RES7   0.0000
    54 H18      4.2557  -2.0557   0.2125   H         7 RES7   0.0000
    55 H19      3.0227  -1.1352   0.7584   H         7 RES7   0.0000
    56 C16      2.6865   5.2817  -3.1932   C.ar      8 RES8   0.0000
    57 C17      3.9900   5.3701  -2.7725   C.ar      8 RES8   0.0000
    58 C18      4.2452   5.9328  -1.6721   C.ar      8 RES8   0.0000
    59 C19      3.3508   6.6513  -0.9278   C.ar      8 RES8   0.0000
    60 C20      1.7102   5.9595  -2.5136   C.ar      8 RES8   0.0000
    61 C21      0.9641   7.3108  -0.5502   C.3       8 RES8   0.0000
    62 C22      2.3089   4.6334  -4.4447   C.2       8 RES8   0.0000
    63 C23      2.2879   3.7606  -6.6238   C.3       8 RES8   0.0000
    64 C24      3.1434   2.6100  -7.1201   C.3       8 RES8   0.0000
    65 C25      2.0740   4.8832  -7.6487   C.3       8 RES8   0.0000
    66 C26      1.0329   3.2457  -5.8147   C.3       8 RES8   0.0000
    67 C27      1.0524   1.8200  -5.4479   C.3       8 RES8   0.0000
    68 C28     -0.2738   3.6119  -6.5591   C.3       8 RES8   0.0000
    69 N6       2.0294   6.6134  -1.3701   N.ar      8 RES8   1.0000
    70 N7       3.1604   4.3795  -5.4911   N.pl3     8 RES8   0.0000
    71 N8       1.0897   4.0988  -4.5871   N.pl3     8 RES8   1.0000
    72 O5       4.3100   4.6896  -5.6529   O.3       8 RES8   0.0000
    73 O6       0.0932   4.1465  -3.7682   O.3       8 RES8  -1.0000
    74 H20      4.7305   4.9885  -3.3270   H         8 RES8   0.0000
    75 H21      5.1777   5.8500  -1.3258   H         8 RES8   0.0000
    76 H22      3.6287   7.1578  -0.1100   H         8 RES8   0.0000
    77 H23      0.7713   5.9693  -2.8556   H         8 RES8   0.0000
    78 H24      0.0745   7.1985  -0.9925   H         8 RES8   0.0000
    79 H25      0.9325   6.9053   0.3646   H         8 RES8   0.0000
    80 H26      1.1812   8.2818  -0.4768   H         8 RES8   0.0000
    81 H27      3.2276   1.9196  -6.3940   H         8 RES8   0.0000
    82 H28      2.7164   2.1876  -7.9216   H         8 RES8   0.0000
    83 H29      4.0540   2.9412  -7.3639   H         8 RES8   0.0000
    84 H30      1.5069   5.6045  -7.2452   H         8 RES8   0.0000
    85 H31      2.9651   5.2733  -7.9033   H         8 RES8   0.0000
    86 H32      1.6276   4.5198  -8.4610   H         8 RES8   0.0000
    87 H33      1.9039   1.6109  -4.9657   H         8 RES8   0.0000
    88 H34      0.2763   1.6207  -4.8438   H         8 RES8   0.0000
    89 H35      0.9851   1.2601  -6.2700   H         8 RES8   0.0000
    90 H36     -0.2601   4.5815  -6.7932   H         8 RES8   0.0000
    91 H37     -0.3476   3.0632  -7.3876   H         8 RES8   0.0000
    92 H38     -1.0581   3.4239  -5.9614   H         8 RES8   0.0000
@<TRIPOS>BOND
     1     6     7    1
     2     7     9    3
     3     8     6    1
     4    10     8    3
     5    11     6    1
     6    12    11    3
     7    13     6    1
     8    14    13    3
     9    15     6    1
    10    16    15    3
    11    17     6    1
    12    18    17    3
    13    19    20   ar
    14    20    21   ar
    15    21    22   ar
    16    22    32   ar
    17    23    19   ar
    18    24    32    1
    19    25    19    1
    20    26    27    1
    21    27    44    1
    22    28    26    1
    23    29    26    1
    24    30    29    1
    25    31    29    1
    26    32    23   ar
    27    33    25    1
    28    34    25    2
    29    35    33    1
    30    36    34    1
    31    37    20    1
    32    38    21    1
    33    39    22    1
    34    40    23    1
    35    41    24    1
    36    42    24    1
    37    43    24    1
    38    45    27    1
    39    46    27    1
    40    47    28    1
    41    48    28    1
    42    49    28    1
    43    50    30    1
    44    51    30    1
    45    52    30    1
    46    53    31    1
    47    54    31    1
    48    55    31    1
    49    26    33    1
    50    29    34    1
    51    56    57   ar
    52    57    58   ar
    53    58    59   ar
    54    59    69   ar
    55    60    56   ar
    56    61    69    1
    57    62    56    1
    58    63    64    1
    59    64    81    1
    60    65    63    1
    61    66    63    1
    62    67    66    1
    63    68    66    1
    64    69    60   ar
    65    70    62    1
    66    71    62    2
    67    72    70    1
    68    73    71    1
    69    74    57    1
    70    75    58    1
    71    76    59    1
    72    77    60    1
    73    78    61    1
    74    79    61    1
    75    80    61    1
    76    82    64    1
    77    83    64    1
    78    84    65    1
    79    85    65    1
    80    86    65    1
    81    87    67    1
    82    88    67    1
    83    89    67    1
    84    90    68    1
    85    91    68    1
    86    92    68    1
    87    63    70    1
    88    66    71    1
@<TRIPOS>SUBSTRUCTURE
     1 RES1        1 GROUP             0 ****  ****    0  
     2 RES2        2 GROUP             0 ****  ****    0  
     3 RES3        3 GROUP             0 ****  ****    0  
     4 RES4        4 GROUP             0 ****  ****    0  
     5 RES5        5 GROUP             0 ****  ****    0  
     6 RES6        6 GROUP             0 ****  ****    0  
     7 RES7       19 GROUP             0 ****  ****    0  
     8 RES8       56 GROUP             0 ****  ****    0  
@<TRIPOS>CRYSIN
   16.2030   16.2030   10.7880   90.0000   90.0000  120.0000   143     1
