@<TRIPOS>MOLECULE
ZUYRAO06
    87    93     4     0     0
SMALL
USER_CHARGES
****
Generated from the CSD

@<TRIPOS>ATOM
     1 Fe1     13.1717   4.7213   8.5645   Fe        1 RES1   2.0000
     2 S1       6.7029   3.4185   8.0337   S.3       1 RES1   0.0000
     3 S2      19.1778   5.9105  11.0990   S.3       1 RES1   0.0000
     4 N1      15.3685   6.6131   7.7358   N.pl3     1 RES1   0.0000
     5 N2      15.1187   5.0299   9.3565   N.ar      1 RES1   0.0000
     6 N3      11.7332   2.9054   6.6356   N.pl3     1 RES1   0.0000
     7 N4      11.0941   4.4243   8.2067   N.ar      1 RES1   0.0000
     8 N5      14.6383   3.3265  10.7932   N.pl3     1 RES1   0.0000
     9 N6      14.1147   6.2395   7.3303   N.2       1 RES1   0.0000
    10 N7      10.7262   5.9884   9.8351   N.pl3     1 RES1   0.0000
    11 N8      13.0155   3.1719   7.0467   N.2       1 RES1   0.0000
    12 N9      12.0850   6.1503   9.8485   N.2       1 RES1   0.0000
    13 N10     13.4540   3.2222  10.1117   N.2       1 RES1   0.0000
    14 C1      15.5542   4.3103  10.3857   C.ar      1 RES1   0.0000
    15 C2       8.8388   4.7145   8.9490   C.ar      1 RES1   0.0000
    16 H1       8.2210   5.1539   9.5224   H         1 RES1   0.0000
    17 C3      10.1774   5.0167   8.9750   C.ar      1 RES1   0.0000
    18 C4      10.6758   3.4858   7.3546   C.ar      1 RES1   0.0000
    19 C5      15.9325   5.9520   8.8505   C.ar      1 RES1   0.0000
    20 C6       8.4194   3.7306   8.0427   C.ar      1 RES1   0.0000
    21 C7      11.7209   1.9778   5.6358   C.2       1 RES1   0.0000
    22 H2      10.9546   1.6400   5.1856   H         1 RES1   0.0000
    23 C8       9.3548   3.1027   7.2140   C.ar      1 RES1   0.0000
    24 H3       9.0942   2.4427   6.5829   H         1 RES1   0.0000
    25 C9      16.7837   4.4947  10.9878   C.ar      1 RES1   0.0000
    26 H4      17.0539   3.9699  11.7316   H         1 RES1   0.0000
    27 C10     13.7824   2.3910   6.3075   C.2       1 RES1   0.0000
    28 H5      14.7283   2.3501   6.3765   H         1 RES1   0.0000
    29 C11     14.7559   2.3392  11.7211   C.2       1 RES1   0.0000
    30 H6      15.4864   2.2029  12.3124   H         1 RES1   0.0000
    31 C12     17.1831   6.2267   9.3426   C.ar      1 RES1   0.0000
    32 H7      17.7356   6.8900   8.9478   H         1 RES1   0.0000
    33 C13     13.8591   6.9925   6.2656   C.2       1 RES1   0.0000
    34 H8      13.0533   6.9577   5.7649   H         1 RES1   0.0000
    35 C14     10.1072   6.9214  10.6131   C.2       1 RES1   0.0000
    36 H9       9.1724   7.0076  10.7564   H         1 RES1   0.0000
    37 C15     15.8795   7.5687   6.9307   C.2       1 RES1   0.0000
    38 H10     16.7352   7.9743   7.0097   H         1 RES1   0.0000
    39 C16     17.6105   5.4844  10.4575   C.ar      1 RES1   0.0000
    40 C17      6.5086   1.8156   7.1858   C.3       1 RES1   0.0000
    41 H11      6.9743   1.8466   6.3026   H         1 RES1   0.0000
    42 C18     12.2975   7.1901  10.6404   C.2       1 RES1   0.0000
    43 H12     13.1554   7.5420  10.8427   H         1 RES1   0.0000
    44 C19     13.0182   1.6280   5.4061   C.2       1 RES1   0.0000
    45 H13     13.3395   0.9999   4.7697   H         1 RES1   0.0000
    46 C20     13.6231   1.5818  11.6401   C.2       1 RES1   0.0000
    47 H14     13.4060   0.8170  12.1599   H         1 RES1   0.0000
    48 C21     12.8464   2.1658  10.6296   C.2       1 RES1   0.0000
    49 H15     11.9958   1.8454  10.3528   H         1 RES1   0.0000
    50 C22     11.0887   7.7078  11.1459   C.2       1 RES1   0.0000
    51 H16     10.9789   8.4469  11.7331   H         1 RES1   0.0000
    52 C23     14.9322   7.8439   5.9790   C.2       1 RES1   0.0000
    53 H17     14.9917   8.4778   5.2750   H         1 RES1   0.0000
    54 C24     19.5199   4.6432  12.3685   C.3       1 RES1   0.0000
    55 H18     18.7165   4.5411  12.9548   H         1 RES1   0.0000
    56 C25      5.0105   1.6352   6.9638   C.3       1 RES1   0.0000
    57 H19      4.5508   1.6245   7.8293   H         1 RES1   0.0000
    58 H20      4.8485   0.7897   6.4967   H         1 RES1   0.0000
    59 H21      4.6687   2.3774   6.4227   H         1 RES1   0.0000
    60 C26      7.0901   0.6935   8.0254   C.3       1 RES1   0.0000
    61 H22      8.0346   0.8788   8.2083   H         1 RES1   0.0000
    62 H23      7.0120  -0.1532   7.5381   H         1 RES1   0.0000
    63 H24      6.5989   0.6306   8.8723   H         1 RES1   0.0000
    64 C27     19.8441   3.3085  11.7310   C.3       1 RES1   0.0000
    65 H25     19.0813   3.0092  11.1924   H         1 RES1   0.0000
    66 H26     20.0279   2.6482  12.4310   H         1 RES1   0.0000
    67 H27     20.6314   3.4035  11.1554   H         1 RES1   0.0000
    68 C28     20.6829   5.1883  13.2018   C.3       1 RES1   0.0000
    69 H28     21.4705   5.3035  12.6282   H         1 RES1   0.0000
    70 H29     20.8922   4.5577  13.9223   H         1 RES1   0.0000
    71 H30     20.4303   6.0528  13.5880   H         1 RES1   0.0000
    72 F1      12.3272   6.4858   3.5153   F         2 RES2   0.0000
    73 F2      10.8268   5.3146   4.7498   F         2 RES2   0.0000
    74 F3      10.0930   6.7827   3.1684   F         2 RES2   0.0000
    75 F4      11.0995   4.8427   2.5414   F         2 RES2   0.0000
    76 B1      11.0921   5.8521   3.4830   B         2 RES2  -1.0000
    77 F5      16.8303   4.0694   6.9904   F         3 RES3   0.0000
    78 F6      18.7950   3.7255   8.0927   F         3 RES3   0.0000
    79 F7      17.1320   2.2204   8.2526   F         3 RES3   0.0000
    80 F8      18.2601   2.4729   6.2979   F         3 RES3   0.0000
    81 B2      17.7423   3.1173   7.4147   B         3 RES3  -1.0000
    82 C29     15.3481   6.5587  13.4455   C.1       4 RES4   0.0000
    83 N11     14.4181   6.4483  12.8153   N.1       4 RES4   0.0000
    84 C30     16.5464   6.6644  14.2474   C.3       4 RES4   0.0000
    85 H31     17.3263   6.7464  13.6604   H         4 RES4   0.0000
    86 H32     16.6397   5.8628  14.8035   H         4 RES4   0.0000
    87 H33     16.4849   7.4565  14.8236   H         4 RES4   0.0000
@<TRIPOS>BOND
     1     1     5    1
     2     2    20    1
     3     3    39    1
     4     4     9    1
     5     5    14   ar
     6     6    11    1
     7     7     1    1
     8     8    13    1
     9     9     1    1
    10    10    12    1
    11    11     1    1
    12    12     1    1
    13    13     1    1
    14    14     8    1
    15    15    16    1
    16    17     7   ar
    17    18     6    1
    18    19     4    1
    19    20    15   ar
    20    21     6    1
    21    22    21    1
    22    23    18   ar
    23    24    23    1
    24    25    14   ar
    25    26    25    1
    26    27    11    2
    27    28    27    1
    28    29     8    1
    29    30    29    1
    30    31    19   ar
    31    32    31    1
    32    33     9    2
    33    34    33    1
    34    35    10    1
    35    36    35    1
    36    37     4    1
    37    38    37    1
    38    39    25   ar
    39    40     2    1
    40    41    40    1
    41    42    12    2
    42    43    42    1
    43    44    21    2
    44    45    44    1
    45    46    29    2
    46    47    46    1
    47    48    13    2
    48    49    48    1
    49    50    35    2
    50    51    50    1
    51    52    33    1
    52    53    52    1
    53    54     3    1
    54    55    54    1
    55    56    40    1
    56    57    56    1
    57    58    56    1
    58    59    56    1
    59    60    40    1
    60    61    60    1
    61    62    60    1
    62    63    60    1
    63    64    54    1
    64    65    64    1
    65    66    64    1
    66    67    64    1
    67    68    54    1
    68    69    68    1
    69    70    68    1
    70    71    68    1
    71     5    19   ar
    72     7    18   ar
    73    10    17    1
    74    15    17   ar
    75    20    23   ar
    76    27    44    1
    77    31    39   ar
    78    37    52    2
    79    42    50    1
    80    46    48    1
    81    72    76    1
    82    73    76    1
    83    74    76    1
    84    75    76    1
    85    77    81    1
    86    78    81    1
    87    79    81    1
    88    80    81    1
    89    82    83    3
    90    84    82    1
    91    85    84    1
    92    86    84    1
    93    87    84    1
@<TRIPOS>SUBSTRUCTURE
     1 RES1        1 GROUP             0 ****  ****    0  
     2 RES2       72 GROUP             0 ****  ****    0  
     3 RES3       77 GROUP             0 ****  ****    0  
     4 RES4       82 GROUP             0 ****  ****    0  
@<TRIPOS>CRYSIN
   20.2089   11.8753   15.6161   90.0000   99.4110   90.0000    14     1
