@<TRIPOS>MOLECULE
ZUYRAO05
    87    93     4     0     0
SMALL
USER_CHARGES
****
Generated from the CSD

@<TRIPOS>ATOM
     1 Fe1      4.5235   7.1330   6.8061   Fe        1 RES1   2.0000
     2 S1      10.9905   8.4354   7.3320   S.3       1 RES1   0.0000
     3 S2      -1.5030   5.9485   4.3155   S.3       1 RES1   0.0000
     4 N1       2.3414   5.2436   7.6556   N.pl3     1 RES1   0.0000
     5 N2       5.5994   5.7023   5.5334   N.2       1 RES1   0.0000
     6 N3       6.9642   5.8647   5.5412   N.pl3     1 RES1   0.0000
     7 N4       2.5797   6.8212   6.0280   N.ar      1 RES1   0.0000
     8 N5       3.5958   5.6158   8.0503   N.2       1 RES1   0.0000
     9 N6       5.9541   8.9629   8.7299   N.pl3     1 RES1   0.0000
    10 N7       4.6789   8.6891   8.3093   N.2       1 RES1   0.0000
    11 N8       3.0478   8.5137   4.5830   N.pl3     1 RES1   0.0000
    12 N9       4.2382   8.6263   5.2640   N.2       1 RES1   0.0000
    13 N10      6.5934   7.4316   7.1654   N.ar      1 RES1   0.0000
    14 C1       9.2759   8.1250   7.3153   C.ar      1 RES1   0.0000
    15 C2       5.3899   4.6533   4.7484   C.2       1 RES1   0.0000
    16 H1       4.5509   4.3037   4.5571   H         1 RES1   0.0000
    17 C3       5.9706   9.8922   9.7137   C.2       1 RES1   0.0000
    18 H2       6.7234  10.2252  10.1473   H         1 RES1   0.0000
    19 C4       4.6741  10.2466   9.9464   C.2       1 RES1   0.0000
    20 H3       4.3614  10.8641  10.5673   H         1 RES1   0.0000
    21 C5      11.1907  10.0427   8.1744   C.3       1 RES1   0.0000
    22 H4      10.7339  10.0143   9.0406   H         1 RES1   0.0000
    23 C6      -2.1442   8.5671   3.6926   C.3       1 RES1   0.0000
    24 H5      -2.9154   8.4888   4.2582   H         1 RES1   0.0000
    25 H6      -2.3141   9.2178   3.0074   H         1 RES1   0.0000
    26 H7      -1.3895   8.8420   4.2168   H         1 RES1   0.0000
    27 C7       7.5767   4.9212   4.7636   C.2       1 RES1   0.0000
    28 H8       8.4915   4.8335   4.6184   H         1 RES1   0.0000
    29 C8       6.5976   4.1389   4.2426   C.2       1 RES1   0.0000
    30 H9       6.7031   3.4135   3.6711   H         1 RES1   0.0000
    31 C9       7.0173   8.3798   8.0083   C.ar      1 RES1   0.0000
    32 C10     -1.8521   7.2301   3.0532   C.3       1 RES1   0.0000
    33 H10     -1.0714   7.3202   2.4663   H         1 RES1   0.0000
    34 C11      2.9199   9.5129   3.6627   C.2       1 RES1   0.0000
    35 H11      2.1992   9.6516   3.0917   H         1 RES1   0.0000
    36 C12      1.8330   4.2812   8.4692   C.2       1 RES1   0.0000
    37 H12      0.9946   3.8853   8.4014   H         1 RES1   0.0000
    38 C13      2.1249   7.5406   5.0006   C.ar      1 RES1   0.0000
    39 C14      2.7897   4.0062   9.4047   C.2       1 RES1   0.0000
    40 H13      2.7411   3.3827  10.0937   H         1 RES1   0.0000
    41 C15      0.5123   5.6241   6.0574   C.ar      1 RES1   0.0000
    42 H14     -0.0236   4.9710   6.4471   H         1 RES1   0.0000
    43 C16      0.0736   6.3696   4.9480   C.ar      1 RES1   0.0000
    44 C17      3.9105   9.4821   9.0480   C.2       1 RES1   0.0000
    45 H15      2.9844   9.5259   8.9793   H         1 RES1   0.0000
    46 C18      4.8362   9.6848   4.7473   C.2       1 RES1   0.0000
    47 H16      5.6680  10.0012   5.0154   H         1 RES1   0.0000
    48 C19      0.8971   7.3498   4.4112   C.ar      1 RES1   0.0000
    49 H17      0.6292   7.8583   3.6803   H         1 RES1   0.0000
    50 C20     12.6886  10.2205   8.3968   C.3       1 RES1   0.0000
    51 H18     13.0199   9.5010   8.9395   H         1 RES1   0.0000
    52 H19     12.8497  11.0561   8.8414   H         1 RES1   0.0000
    53 H20     13.1401  10.2169   7.5492   H         1 RES1   0.0000
    54 C21      4.0512  10.2703   3.7412   C.2       1 RES1   0.0000
    55 H21      4.2599  11.0205   3.2327   H         1 RES1   0.0000
    56 C22      8.8523   7.1388   6.4218   C.ar      1 RES1   0.0000
    57 H22      9.4564   6.7015   5.8661   H         1 RES1   0.0000
    58 C23     10.5999  11.1628   7.3295   C.3       1 RES1   0.0000
    59 H23     11.0825  11.2292   6.5038   H         1 RES1   0.0000
    60 H24     10.6670  11.9925   7.8067   H         1 RES1   0.0000
    61 H25      9.6777  10.9720   7.1461   H         1 RES1   0.0000
    62 C24      8.3344   8.7603   8.1513   C.ar      1 RES1   0.0000
    63 H26      8.5893   9.4062   8.7693   H         1 RES1   0.0000
    64 C25     -3.0325   6.7098   2.2333   C.3       1 RES1   0.0000
    65 H27     -2.8059   5.8611   1.8486   H         1 RES1   0.0000
    66 H28     -3.2362   7.3344   1.5328   H         1 RES1   0.0000
    67 H29     -3.7982   6.6078   2.8035   H         1 RES1   0.0000
    68 C26      1.7604   5.8990   6.5377   C.ar      1 RES1   0.0000
    69 C27      7.5162   6.8390   6.3934   C.ar      1 RES1   0.0000
    70 C28      3.8563   4.8572   9.1102   C.2       1 RES1   0.0000
    71 H30      4.6484   4.8892   9.5955   H         1 RES1   0.0000
    72 N11      3.2498   5.4356   2.5981   N.1       2 RES2   0.0000
    73 C29      1.1407   5.2033   1.1251   C.3       2 RES2   0.0000
    74 H31      1.1119   5.9239   0.4905   H         2 RES2   0.0000
    75 H32      0.3621   5.2388   1.6846   H         2 RES2   0.0000
    76 H33      1.1599   4.3665   0.6561   H         2 RES2   0.0000
    77 C30      2.3325   5.3266   1.9452   C.1       2 RES2   0.0000
    78 F1       6.6245   7.0527  12.8198   F         3 RES3   0.0000
    79 F2       7.6301   5.1028  12.1967   F         3 RES3   0.0000
    80 F3       6.9010   6.5731  10.6049   F         3 RES3   0.0000
    81 F4       5.3909   5.3974  11.8456   F         3 RES3   0.0000
    82 B1       6.6263   6.0365  11.8764   B         3 RES3  -1.0000
    83 F5       0.8940   7.8288   8.3493   F         4 RES4   0.0000
    84 F6      -1.1154   8.1320   7.2799   F         4 RES4   0.0000
    85 F7       0.5388   9.6831   7.0716   F         4 RES4   0.0000
    86 F8      -0.5525   9.4270   9.0547   F         4 RES4   0.0000
    87 B2      -0.0483   8.7697   7.9309   B         4 RES4  -1.0000
@<TRIPOS>BOND
     1     1     5    1
     2     2    14    1
     3     3    32    1
     4     4     8    1
     5     5     6    1
     6     6    27    1
     7     7     1    1
     8     8     1    1
     9     9    10    1
    10    10     1    1
    11    11    12    1
    12    12     1    1
    13    13     1    1
    14    14    56   ar
    15    15     5    2
    16    16    15    1
    17    17     9    1
    18    18    17    1
    19    19    17    2
    20    20    19    1
    21    21     2    1
    22    22    21    1
    23    23    24    1
    24    25    23    1
    25    26    23    1
    26    27    28    1
    27    29    15    1
    28    30    29    1
    29    31     9    1
    30    32    23    1
    31    33    32    1
    32    34    11    1
    33    35    34    1
    34    36     4    1
    35    37    36    1
    36    38     7   ar
    37    39    36    2
    38    40    39    1
    39    41    42    1
    40    43     3    1
    41    44    10    2
    42    45    44    1
    43    46    12    2
    44    47    46    1
    45    48    38   ar
    46    49    48    1
    47    50    21    1
    48    51    50    1
    49    52    50    1
    50    53    50    1
    51    54    34    2
    52    55    54    1
    53    56    57    1
    54    58    21    1
    55    59    58    1
    56    60    58    1
    57    61    58    1
    58    62    14   ar
    59    63    62    1
    60    64    32    1
    61    65    64    1
    62    66    64    1
    63    67    64    1
    64    68     4    1
    65    69     6    1
    66    70     8    2
    67    71    70    1
    68     7    68   ar
    69    11    38    1
    70    13    31   ar
    71    13    69   ar
    72    19    44    1
    73    27    29    2
    74    31    62   ar
    75    39    70    1
    76    41    43   ar
    77    41    68   ar
    78    43    48   ar
    79    46    54    1
    80    56    69   ar
    81    72    77    3
    82    73    74    1
    83    75    73    1
    84    76    73    1
    85    77    73    1
    86    78    82    1
    87    79    82    1
    88    80    82    1
    89    81    82    1
    90    83    87    1
    91    84    87    1
    92    85    87    1
    93    86    87    1
@<TRIPOS>SUBSTRUCTURE
     1 RES1        1 GROUP             0 ****  ****    0  
     2 RES2       72 GROUP             0 ****  ****    0  
     3 RES3       78 GROUP             0 ****  ****    0  
     4 RES4       83 GROUP             0 ****  ****    0  
@<TRIPOS>CRYSIN
   20.2280   11.8526   15.5284   90.0000   99.2080   90.0000    14     1
