@<TRIPOS>MOLECULE
ZUYRAO01
    87    93     4     0     0
SMALL
USER_CHARGES
****
Generated from the CSD

@<TRIPOS>ATOM
     1 Fe1      4.2015   7.6208   1.0344   Fe        1 RES1   2.0000
     2 N1       2.3682   7.8643   0.5751   N.ar      1 RES1   0.0000
     3 C1       2.0036   8.7986  -0.3022   C.ar      1 RES1   0.0000
     4 C2       0.6883   9.1317  -0.5468   C.ar      1 RES1   0.0000
     5 H1       0.4537   9.7952  -1.1854   H         1 RES1   0.0000
     6 C3      -0.2891   8.4472   0.1896   C.ar      1 RES1   0.0000
     7 C4       0.0846   7.4604   1.1255   C.ar      1 RES1   0.0000
     8 H2      -0.5635   6.9885   1.6352   H         1 RES1   0.0000
     9 C5       1.4235   7.2110   1.2664   C.ar      1 RES1   0.0000
    10 N2       3.1306   9.4182  -0.8604   N.pl3     1 RES1   0.0000
    11 N3       4.3579   9.0615  -0.3256   N.2       1 RES1   0.0000
    12 C6       5.2348   9.8628  -0.9094   C.2       1 RES1   0.0000
    13 H3       6.1693   9.8542  -0.7388   H         1 RES1   0.0000
    14 C7       4.5979  10.7341  -1.8204   C.2       1 RES1   0.0000
    15 H4       5.0099  11.4001  -2.3585   H         1 RES1   0.0000
    16 C8       3.2689  10.4207  -1.7687   C.2       1 RES1   0.0000
    17 H5       2.5735  10.8263  -2.2720   H         1 RES1   0.0000
    18 N4       2.0049   6.3039   2.1692   N.pl3     1 RES1   0.0000
    19 N5       3.3728   6.2714   2.2078   N.2       1 RES1   0.0000
    20 C9       3.6753   5.3136   3.0761   C.2       1 RES1   0.0000
    21 H6       4.5587   5.0592   3.3121   H         1 RES1   0.0000
    22 C10      2.5086   4.7262   3.6007   C.2       1 RES1   0.0000
    23 H7       2.4569   4.0257   4.2395   H         1 RES1   0.0000
    24 C11      1.4694   5.3726   3.0013   C.2       1 RES1   0.0000
    25 H8       0.5451   5.2030   3.1390   H         1 RES1   0.0000
    26 S1      -2.0148   8.7040   0.0546   S.3       1 RES1   0.0000
    27 C12     -2.1997  10.2954  -0.8181   C.3       1 RES1   0.0000
    28 H9      -1.6548  10.2806  -1.6553   H         1 RES1   0.0000
    29 C13     -1.7472  11.4517   0.0603   C.3       1 RES1   0.0000
    30 H10     -1.7903  12.2861  -0.4513   H         1 RES1   0.0000
    31 H11     -0.8256  11.2969   0.3555   H         1 RES1   0.0000
    32 H12     -2.3349  11.5169   0.8423   H         1 RES1   0.0000
    33 C14     -3.6757  10.4023  -1.1762   C.3       1 RES1   0.0000
    34 H13     -4.2141  10.3703  -0.3586   H         1 RES1   0.0000
    35 H14     -3.9256   9.6576  -1.7619   H         1 RES1   0.0000
    36 H15     -3.8383  11.2502  -1.6414   H         1 RES1   0.0000
    37 N6       5.9746   7.3395   1.6721   N.ar      1 RES1   0.0000
    38 C15      6.7380   6.3827   1.1476   C.ar      1 RES1   0.0000
    39 C16      7.9648   6.0276   1.6610   C.ar      1 RES1   0.0000
    40 H16      8.4921   5.3419   1.2658   H         1 RES1   0.0000
    41 C17      8.4016   6.7305   2.8032   C.ar      1 RES1   0.0000
    42 C18      7.6049   7.7320   3.3662   C.ar      1 RES1   0.0000
    43 H17      7.8832   8.2125   4.1375   H         1 RES1   0.0000
    44 C19      6.4018   7.9925   2.7570   C.ar      1 RES1   0.0000
    45 N7       6.0990   5.7996   0.0391   N.pl3     1 RES1   0.0000
    46 N8       4.8242   6.2435  -0.2340   N.2       1 RES1   0.0000
    47 C20      4.4434   5.5790  -1.3142   C.2       1 RES1   0.0000
    48 H18      3.6021   5.6810  -1.7434   H         1 RES1   0.0000
    49 C21      5.4603   4.6979  -1.7398   C.2       1 RES1   0.0000
    50 H19      5.4320   4.1105  -2.4868   H         1 RES1   0.0000
    51 C22      6.4967   4.8614  -0.8587   C.2       1 RES1   0.0000
    52 H20      7.3320   4.4079  -0.8732   H         1 RES1   0.0000
    53 N9       5.4475   8.9318   3.1753   N.pl3     1 RES1   0.0000
    54 N10      4.2532   8.9466   2.4822   N.2       1 RES1   0.0000
    55 C23      3.5551   9.9550   2.9993   C.2       1 RES1   0.0000
    56 H21      2.6852  10.2131   2.7186   H         1 RES1   0.0000
    57 C24      4.2908  10.5854   4.0222   C.2       1 RES1   0.0000
    58 H22      4.0137  11.3289   4.5455   H         1 RES1   0.0000
    59 C25      5.4765   9.9218   4.1118   C.2       1 RES1   0.0000
    60 H23      6.1868  10.1123   4.7124   H         1 RES1   0.0000
    61 S2       9.9383   6.2041   3.4569   S.3       1 RES1   0.0000
    62 C26     10.2729   7.3166   4.8670   C.3       1 RES1   0.0000
    63 H24      9.4282   7.4518   5.3847   H         1 RES1   0.0000
    64 C27     10.7947   8.6585   4.4141   C.3       1 RES1   0.0000
    65 H25     10.9367   9.2337   5.1946   H         1 RES1   0.0000
    66 H26     10.1423   9.0764   3.8144   H         1 RES1   0.0000
    67 H27     11.6444   8.5357   3.9412   H         1 RES1   0.0000
    68 C28     11.2827   6.5609   5.7417   C.3       1 RES1   0.0000
    69 H28     12.0822   6.3557   5.2147   H         1 RES1   0.0000
    70 H29     10.8784   5.7265   6.0601   H         1 RES1   0.0000
    71 H30     11.5295   7.1163   6.5099   H         1 RES1   0.0000
    72 B1       7.4970   9.5224   7.4017   B         2 RES2  -1.0000
    73 F1       8.7196   9.8469   7.9071   F         2 RES2   0.0000
    74 F2       6.8773  10.6520   6.8875   F         2 RES2   0.0000
    75 F3       6.7464   8.9729   8.4052   F         2 RES2   0.0000
    76 F4       7.6088   8.6069   6.3941   F         2 RES2   0.0000
    77 B2       0.5851  12.1104   3.4790   B         3 RES3  -1.0000
    78 F5       1.8416  12.6956   3.4991   F         3 RES3   0.0000
    79 F6      -0.3872  13.0377   3.0957   F         3 RES3   0.0000
    80 F7       0.2966  11.6493   4.7693   F         3 RES3   0.0000
    81 F8       0.5812  11.0322   2.6004   F         3 RES3   0.0000
    82 C29      9.3196   6.9111   9.0430   C.3       4 RES4   0.0000
    83 H31      9.3475   5.9342   8.9642   H         4 RES4   0.0000
    84 H32      9.0629   7.3019   8.1806   H         4 RES4   0.0000
    85 H33      8.6636   7.1655   9.7246   H         4 RES4   0.0000
    86 C30     10.6192   7.3977   9.4233   C.1       4 RES4   0.0000
    87 N11     11.6634   7.7664   9.6968   N.1       4 RES4   0.0000
@<TRIPOS>BOND
     1     1     2    1
     2     2     3   ar
     3     3     4   ar
     4     4     5    1
     5     6     4   ar
     6     7     6   ar
     7     8     7    1
     8     9     2   ar
     9    10     3    1
    10    11     1    1
    11    12    11    2
    12    13    12    1
    13    14    12    1
    14    15    14    1
    15    16    10    1
    16    17    16    1
    17    18     9    1
    18    19     1    1
    19    20    19    2
    20    21    20    1
    21    22    20    1
    22    23    22    1
    23    24    18    1
    24    25    24    1
    25    26     6    1
    26    27    26    1
    27    28    27    1
    28    29    27    1
    29    30    29    1
    30    31    29    1
    31    32    29    1
    32    33    27    1
    33    34    33    1
    34    35    33    1
    35    36    33    1
    36    37     1    1
    37    38    37   ar
    38    39    38   ar
    39    40    39    1
    40    41    39   ar
    41    42    41   ar
    42    43    42    1
    43    44    37   ar
    44    45    38    1
    45    46     1    1
    46    47    46    2
    47    48    47    1
    48    49    47    1
    49    50    49    1
    50    51    45    1
    51    52    51    1
    52    53    44    1
    53    54     1    1
    54    55    54    2
    55    56    55    1
    56    57    55    1
    57    58    57    1
    58    59    53    1
    59    60    59    1
    60    61    41    1
    61    62    61    1
    62    63    62    1
    63    64    62    1
    64    65    64    1
    65    66    64    1
    66    67    64    1
    67    68    62    1
    68    69    68    1
    69    70    68    1
    70    71    68    1
    71     7     9   ar
    72    10    11    1
    73    14    16    2
    74    18    19    1
    75    22    24    2
    76    42    44   ar
    77    45    46    1
    78    49    51    2
    79    53    54    1
    80    57    59    2
    81    72    73    1
    82    74    72    1
    83    75    72    1
    84    76    72    1
    85    77    78    1
    86    79    77    1
    87    80    77    1
    88    81    77    1
    89    82    83    1
    90    84    82    1
    91    85    82    1
    92    86    82    1
    93    87    86    3
@<TRIPOS>SUBSTRUCTURE
     1 RES1        1 GROUP             0 ****  ****    0  
     2 RES2       72 GROUP             0 ****  ****    0  
     3 RES3       77 GROUP             0 ****  ****    0  
     4 RES4       82 GROUP             0 ****  ****    0  
@<TRIPOS>CRYSIN
   19.6123   12.2886   15.7248   90.0000  100.6180   90.0000    14     1
