@<TRIPOS>MOLECULE
01
 118 123 0 0 0
SMALL
GASTEIGER

@<TRIPOS>ATOM
      1 CO         -2.8608    5.6576    7.3248 Co.oh   1  UNL1        0.0000
      2 CL         -4.8166    6.0558    5.7783 Cl      1  UNL1        0.0000
      3 CL          6.0553    1.9050   -0.3941 Cl      1  UNL1        0.0000
      4 CL          5.9098   12.4384    2.1750 Cl      1  UNL1        0.0000
      5 O           1.5242    6.4690    3.9901 O.3     1  UNL1        0.0000
      6 H           2.1804    6.2087    4.4066 H       1  UNL1        0.0000
      7 O           2.0676    7.9996    7.2179 O.3     1  UNL1        0.0000
      8 H           2.5000    7.5260    6.7066 H       1  UNL1        0.0000
      9 N          -1.8315    4.7328    5.7134 N.pl3   1  UNL1        0.0000
     10 N          -0.4200    4.3117    4.1063 N.pl3   1  UNL1        0.0000
     11 N          -1.5276    3.5863    3.8016 N.2     1  UNL1        0.0000
     12 N          -1.9841    7.5397    6.7594 N.pl3   1  UNL1        0.0000
     13 N          -0.4178    8.9029    6.0547 N.pl3   1  UNL1        0.0000
     14 N          -1.5694    9.3173    5.4292 N.2     1  UNL1        0.0000
     15 C          -0.6152    4.9649    5.2475 C.3     1  UNL1        0.0000
     16 H           0.0158    5.5095    5.6621 H       1  UNL1        0.0000
     17 C          -2.3372    3.8893    4.7934 C.2     1  UNL1        0.0000
     18 H          -3.1984    3.5448    4.8549 H       1  UNL1        0.0000
     19 C           0.7586    4.2842    3.2742 C.2     1  UNL1        0.0000
     20 C           1.3132    5.6285    2.8640 C.3     1  UNL1        0.0000
     21 H           2.1871    5.4708    2.4494 H       1  UNL1        0.0000
     22 C           0.4460    6.3936    1.8341 C.3     1  UNL1        0.0000
     23 C          -0.8497    6.9423    2.4494 C.3     1  UNL1        0.0000
     24 H          -1.4496    6.2171    2.6325 H       1  UNL1        0.0000
     25 H          -1.2629    7.5519    1.8327 H       1  UNL1        0.0000
     26 H          -0.6457    7.4036    3.2654 H       1  UNL1        0.0000
     27 C           1.2889    7.5703    1.3273 C.3     1  UNL1        0.0000
     28 H           1.4888    8.1595    2.0583 H       1  UNL1        0.0000
     29 H           0.7974    8.0492    0.6548 H       1  UNL1        0.0000
     30 H           2.1072    7.2384    0.9493 H       1  UNL1        0.0000
     31 C           0.1304    5.4685    0.6666 C.3     1  UNL1        0.0000
     32 H           0.9427    5.0727    0.3428 H       1  UNL1        0.0000
     33 H          -0.2824    5.9728   -0.0381 H       1  UNL1        0.0000
     34 H          -0.4687    4.7766    0.9596 H       1  UNL1        0.0000
     35 C           1.1791    3.1012    2.8713 C.2     1  UNL1        0.0000
     36 H           0.6717    2.3642    3.1277 H       1  UNL1        0.0000
     37 C           2.3914    2.8343    2.0466 C.ar    1  UNL1        0.0000
     38 C           3.6395    3.2161    2.4524 C.ar    1  UNL1        0.0000
     39 H           3.7266    3.6775    3.2552 H       1  UNL1        0.0000
     40 C           4.7729    2.9447    1.7169 C.ar    1  UNL1        0.0000
     41 H           5.6090    3.2335    2.0041 H       1  UNL1        0.0000
     42 C           4.6381    2.2386    0.5523 C.ar    1  UNL1        0.0000
     43 C           3.4050    1.8454    0.0967 C.ar    1  UNL1        0.0000
     44 H           3.3262    1.3951   -0.7134 H       1  UNL1        0.0000
     45 C           2.2782    2.1235    0.8541 C.ar    1  UNL1        0.0000
     46 H           1.4428    1.8335    0.5655 H       1  UNL1        0.0000
     47 C          -0.7088    7.8553    6.8341 C.3     1  UNL1        0.0000
     48 H          -0.0874    7.4063    7.3615 H       1  UNL1        0.0000
     49 C          -2.4547    8.4740    5.8818 C.2     1  UNL1        0.0000
     50 H          -3.3482    8.5081    5.6255 H       1  UNL1        0.0000
     51 C           0.8587    9.4630    5.6929 C.2     1  UNL1        0.0000
     52 C           1.9880    9.3287    6.6861 C.3     1  UNL1        0.0000
     53 H           2.8185    9.4817    6.1880 H       1  UNL1        0.0000
     54 C           1.9815   10.3375    7.8537 C.3     1  UNL1        0.0000
     55 C           0.8222   10.0822    8.8206 C.3     1  UNL1        0.0000
     56 H          -0.0110   10.2430    8.3708 H       1  UNL1        0.0000
     57 H           0.8982   10.6714    9.5750 H       1  UNL1        0.0000
     58 H           0.8516    9.1714    9.1223 H       1  UNL1        0.0000
     59 C           1.9072   11.7657    7.3116 C.3     1  UNL1        0.0000
     60 H           2.6297   11.9121    6.6964 H       1  UNL1        0.0000
     61 H           1.9749   12.3887    8.0397 H       1  UNL1        0.0000
     62 H           1.0708   11.8932    6.8590 H       1  UNL1        0.0000
     63 C           3.3087   10.1735    8.6081 C.3     1  UNL1        0.0000
     64 H           3.3753    9.2780    8.9465 H       1  UNL1        0.0000
     65 H           3.3418   10.7950    9.3377 H       1  UNL1        0.0000
     66 H           4.0397   10.3440    8.0090 H       1  UNL1        0.0000
     67 C           0.9448   10.0987    4.5355 C.2     1  UNL1        0.0000
     68 H           0.1612   10.1868    4.0418 H       1  UNL1        0.0000
     69 C           2.1742   10.6823    3.9554 C.ar    1  UNL1        0.0000
     70 C           2.2449   12.0267    3.6404 C.ar    1  UNL1        0.0000
     71 H           1.5080   12.5701    3.8031 H       1  UNL1        0.0000
     72 C           3.3876   12.5856    3.0867 C.ar    1  UNL1        0.0000
     73 H           3.4256   13.4897    2.8713 H       1  UNL1        0.0000
     74 C           4.4652   11.7531    2.8655 C.ar    1  UNL1        0.0000
     75 C           4.4313   10.4238    3.1248 C.ar    1  UNL1        0.0000
     76 H           5.1650    9.8814    2.9402 H       1  UNL1        0.0000
     77 C           3.2646    9.8871    3.6756 C.ar    1  UNL1        0.0000
     78 H           3.2237    8.9762    3.8587 H       1  UNL1        0.0000
     79 CL         -0.9051    5.2594    8.8714 Cl      1  UNL1        0.0000
     80 CL        -11.7770    9.4102   15.0437 Cl      1  UNL1        0.0000
     81 O          -7.2459    4.8461   10.6595 O.3     1  UNL1        0.0000
     82 H          -7.9021    5.1065   10.2430 H       1  UNL1        0.0000
     83 N          -3.8902    6.5824    8.9363 N.pl3   1  UNL1        0.0000
     84 N          -5.3017    7.0034   10.5434 N.pl3   1  UNL1        0.0000
     85 N          -4.1940    7.7289   10.8481 N.2     1  UNL1        0.0000
     86 O          -3.5535    4.1708    7.7715 O.3     1  UNL1        0.0000
     87 C          -5.1064    6.3503    9.4021 C.3     1  UNL1        0.0000
     88 H          -5.7374    5.8056    8.9876 H       1  UNL1        0.0000
     89 C          -3.3845    7.4258    9.8563 C.2     1  UNL1        0.0000
     90 H          -2.5233    7.7704    9.7948 H       1  UNL1        0.0000
     91 C          -6.4803    7.0310   11.3755 C.2     1  UNL1        0.0000
     92 C          -7.0348    5.6867   11.7856 C.3     1  UNL1        0.0000
     93 H          -7.9088    5.8444   12.2002 H       1  UNL1        0.0000
     94 C          -6.1677    4.9216   12.8155 C.3     1  UNL1        0.0000
     95 C          -4.8720    4.3728   12.2002 C.3     1  UNL1        0.0000
     96 H          -4.2720    5.0981   12.0171 H       1  UNL1        0.0000
     97 H          -4.4587    3.7633   12.8170 H       1  UNL1        0.0000
     98 H          -5.0760    3.9115   11.3842 H       1  UNL1        0.0000
     99 C          -7.0106    3.7448   13.3224 C.3     1  UNL1        0.0000
    100 H          -7.2104    3.1557   12.5914 H       1  UNL1        0.0000
    101 H          -6.5191    3.2660   13.9948 H       1  UNL1        0.0000
    102 H          -7.8288    4.0767   13.7004 H       1  UNL1        0.0000
    103 C          -5.8520    5.8466   13.9831 C.3     1  UNL1        0.0000
    104 H          -6.6643    6.2424   14.3069 H       1  UNL1        0.0000
    105 H          -5.4392    5.3424   14.6877 H       1  UNL1        0.0000
    106 H          -5.2529    6.5386   13.6901 H       1  UNL1        0.0000
    107 C          -6.9008    8.2140   11.7783 C.2     1  UNL1        0.0000
    108 H          -6.3934    8.9510   11.5220 H       1  UNL1        0.0000
    109 C          -8.1130    8.4809   12.6031 C.ar    1  UNL1        0.0000
    110 C          -9.3612    8.0991   12.1973 C.ar    1  UNL1        0.0000
    111 H          -9.4482    7.6376   11.3945 H       1  UNL1        0.0000
    112 C         -10.4946    8.3705   12.9327 C.ar    1  UNL1        0.0000
    113 H         -11.3306    8.0816   12.6456 H       1  UNL1        0.0000
    114 C         -10.3598    9.0766   14.0974 C.ar    1  UNL1        0.0000
    115 C          -9.1267    9.4697   14.5530 C.ar    1  UNL1        0.0000
    116 H          -9.0479    9.9201   15.3631 H       1  UNL1        0.0000
    117 C          -7.9999    9.1917   13.7956 C.ar    1  UNL1        0.0000
    118 H          -7.1644    9.4817   14.0842 H       1  UNL1        0.0000
@<TRIPOS>BOND
     1    44    43    1
     2     3    42    1
     3    33    31    1
     4    43    42   ar
     5    43    45   ar
     6    32    31    1
     7    42    40   ar
     8    46    45    1
     9    29    27    1
    10    31    34    1
    11    31    22    1
    12    45    37   ar
    13    30    27    1
    14    27    22    1
    15    27    28    1
    16    40    41    1
    17    40    38   ar
    18    25    23    1
    19    22    23    1
    20    22    20    1
    21    37    38   ar
    22    37    35    1
    23     4    74    1
    24    21    20    1
    25    23    24    1
    26    23    26    1
    27    38    39    1
    28    20    19    1
    29    20     5    1
    30    74    72   ar
    31    74    75   ar
    32    73    72    1
    33    35    36    1
    34    35    19    2
    35    76    75    1
    36    72    70   ar
    37    75    77   ar
    38    19    10    1
    39    70    71    1
    40    70    69   ar
    41    77    78    1
    42    77    69   ar
    43    11    10    1
    44    11    17    2
    45    69    67    1
    46     5     6    1
    47    68    67    1
    48    10    15    1
    49    67    51    2
    50    17    18    1
    51    17     9    1
    52    15    16    1
    53    15     9    1
    54    14    49    2
    55    14    13    1
    56    50    49    1
    57    51    13    1
    58    51    52    1
    59     9     1    1
    60     2     1    1
    61    49    12    1
    62    13    47    1
    63    53    52    1
    64    52     7    1
    65    52    54    1
    66    60    59    1
    67     8     7    1
    68    12    47    1
    69    12     1    1
    70    47    48    1
    71    62    59    1
    72    59    54    1
    73    59    61    1
    74     1    86    1
    75     1    79    1
    76     1    83    1
    77    54    63    1
    78    54    55    1
    79    66    63    1
    80    56    55    1
    81    63    64    1
    82    63    65    1
    83    55    58    1
    84    55    57    1
    85    83    87    1
    86    83    89    1
    87    88    87    1
    88    87    84    1
    89    90    89    1
    90    89    85    2
    91    82    81    1
    92    84    85    1
    93    84    91    1
    94    81    92    1
    95    91   107    2
    96    91    92    1
    97    98    95    1
    98   111   110    1
    99   108   107    1
   100   107   109    1
   101    92    93    1
   102    92    94    1
   103    96    95    1
   104   110   109   ar
   105   110   112   ar
   106    95    94    1
   107    95    97    1
   108   100    99    1
   109   109   117   ar
   110   113   112    1
   111    94    99    1
   112    94   103    1
   113   112   114   ar
   114    99   102    1
   115    99   101    1
   116   106   103    1
   117   117   118    1
   118   117   115   ar
   119   103   104    1
   120   103   105    1
   121   114   115   ar
   122   114    80    1
   123   115   116    1
