@<TRIPOS>MOLECULE
CIMHIT
   146   167     1     0     0
SMALL
NO_CHARGES
****
Generated from the CSD

@<TRIPOS>ATOM
     1 Fe1      9.1701   8.3751  14.0217   Fe        1 RES1   0.0000
     2 Cl1     10.7350  16.1807  14.1096   Cl        1 RES1   0.0000
     3 N1      10.2536  10.9959  14.0531   N.pl3     1 RES1   0.0000
     4 N2      10.6002   8.4667  15.4465   N.ar      1 RES1   0.0000
     5 N3      10.7744   8.4182  12.7880   N.ar      1 RES1   0.0000
     6 C1       9.1701  10.1886  14.0217   C.2       1 RES1   0.0000
     7 C2       9.8687  12.3365  14.0490   C.ar      1 RES1   0.0000
     8 C3      10.5997  13.5111  14.0844   C.ar      1 RES1   0.0000
     9 C4       9.8699  14.6784  14.0573   C.ar      1 RES1   0.0000
    10 C5      11.5349  10.2971  14.1285   C.3       1 RES1   0.0000
    11 C6      11.5540   9.4333  15.3648   C.ar      1 RES1   0.0000
    12 C7      12.5495   9.5649  16.3086   C.ar      1 RES1   0.0000
    13 C8      12.6121   8.6789  17.3533   C.ar      1 RES1   0.0000
    14 C9      11.6878   7.6624  17.4350   C.ar      1 RES1   0.0000
    15 C10     10.6971   7.6046  16.4666   C.ar      1 RES1   0.0000
    16 C11     11.7205   9.3781  12.9533   C.ar      1 RES1   0.0000
    17 C12     12.8764   9.4034  12.1877   C.ar      1 RES1   0.0000
    18 C13     13.1193   8.4072  11.2679   C.ar      1 RES1   0.0000
    19 C14     12.1914   7.3969  11.1282   C.ar      1 RES1   0.0000
    20 C15     11.0269   7.4558  11.8794   C.ar      1 RES1   0.0000
    21 C16     11.7599   6.6175  18.5049   C.ar      1 RES1   0.0000
    22 C17     11.5866   6.9889  19.8379   C.ar      1 RES1   0.0000
    23 C18     11.3751   8.3106  20.2549   C.ar      1 RES1   0.0000
    24 C19     11.2942   8.6459  21.5935   C.ar      1 RES1   0.0000
    25 C20     11.3869   7.6314  22.5619   C.ar      1 RES1   0.0000
    26 C21     11.5477   6.3464  22.2142   C.ar      1 RES1   0.0000
    27 C22     11.6506   5.9518  20.8699   C.ar      1 RES1   0.0000
    28 C23     11.8137   4.6470  20.4755   C.ar      1 RES1   0.0000
    29 C24     12.0247   4.2610  19.1780   C.ar      1 RES1   0.0000
    30 C25     12.3010   2.9308  18.8041   C.ar      1 RES1   0.0000
    31 C26     12.5890   2.5955  17.5440   C.ar      1 RES1   0.0000
    32 C27     12.6320   3.5818  16.5400   C.ar      1 RES1   0.0000
    33 C28     12.3570   4.8840  16.8448   C.ar      1 RES1   0.0000
    34 C29     12.0257   5.2955  18.1441   C.ar      1 RES1   0.0000
    35 C30     12.4344   6.2052  10.2413   C.ar      1 RES1   0.0000
    36 C31     13.1515   5.1312  10.7556   C.ar      1 RES1   0.0000
    37 C32     13.6985   5.1163  12.0793   C.ar      1 RES1   0.0000
    38 C33     14.3368   4.0214  12.5691   C.ar      1 RES1   0.0000
    39 C34     14.4777   2.8519  11.7801   C.ar      1 RES1   0.0000
    40 C35     14.0097   2.8423  10.5051   C.ar      1 RES1   0.0000
    41 C36     13.3289   3.9513   9.9573   C.ar      1 RES1   0.0000
    42 C37     12.7861   3.9081   8.6804   C.ar      1 RES1   0.0000
    43 C38     12.0368   4.9697   8.1644   C.ar      1 RES1   0.0000
    44 C39     11.4001   4.8781   6.9155   C.ar      1 RES1   0.0000
    45 C40     10.6229   5.8701   6.4855   C.ar      1 RES1   0.0000
    46 C41     10.4508   7.0650   7.2277   C.ar      1 RES1   0.0000
    47 C42     11.0569   7.2115   8.4598   C.ar      1 RES1   0.0000
    48 C43     11.8524   6.1409   8.9769   C.ar      1 RES1   0.0000
    49 Cl1A     7.6052  16.1807  13.9339   Cl        1 RES1   0.0000
    50 N1A      8.0866  10.9959  13.9903   N.pl3     1 RES1   0.0000
    51 N2A      7.7401   8.4667  12.5969   N.ar      1 RES1   0.0000
    52 N3A      7.5659   8.4182  15.2555   N.ar      1 RES1   0.0000
    53 C2A      8.4715  12.3365  13.9944   C.ar      1 RES1   0.0000
    54 C3A      7.7405  13.5111  13.9591   C.ar      1 RES1   0.0000
    55 C4A      8.4703  14.6784  13.9862   C.ar      1 RES1   0.0000
    56 C5A      6.8053  10.2971  13.9150   C.3       1 RES1   0.0000
    57 C6A      6.7863   9.4333  12.6786   C.ar      1 RES1   0.0000
    58 C7A      5.7908   9.5649  11.7349   C.ar      1 RES1   0.0000
    59 C8A      5.7281   8.6789  10.6902   C.ar      1 RES1   0.0000
    60 C9A      6.6524   7.6624  10.6085   C.ar      1 RES1   0.0000
    61 C10A     7.6431   7.6046  11.5769   C.ar      1 RES1   0.0000
    62 C11A     6.6198   9.3781  15.0902   C.ar      1 RES1   0.0000
    63 C12A     5.4638   9.4034  15.8558   C.ar      1 RES1   0.0000
    64 C13A     5.2209   8.4072  16.7756   C.ar      1 RES1   0.0000
    65 C14A     6.1488   7.3969  16.9153   C.ar      1 RES1   0.0000
    66 C15A     7.3133   7.4558  16.1641   C.ar      1 RES1   0.0000
    67 C16A     6.5804   6.6175   9.5385   C.ar      1 RES1   0.0000
    68 C17A     6.7536   6.9889   8.2055   C.ar      1 RES1   0.0000
    69 C18A     6.9651   8.3106   7.7886   C.ar      1 RES1   0.0000
    70 C19A     7.0461   8.6459   6.4500   C.ar      1 RES1   0.0000
    71 C20A     6.9533   7.6314   5.4816   C.ar      1 RES1   0.0000
    72 C21A     6.7925   6.3464   5.8293   C.ar      1 RES1   0.0000
    73 C22A     6.6896   5.9518   7.1735   C.ar      1 RES1   0.0000
    74 C23A     6.5265   4.6470   7.5680   C.ar      1 RES1   0.0000
    75 C24A     6.3156   4.2610   8.8655   C.ar      1 RES1   0.0000
    76 C25A     6.0392   2.9308   9.2394   C.ar      1 RES1   0.0000
    77 C26A     5.7512   2.5955  10.4995   C.ar      1 RES1   0.0000
    78 C27A     5.7083   3.5818  11.5034   C.ar      1 RES1   0.0000
    79 C28A     5.9832   4.8840  11.1987   C.ar      1 RES1   0.0000
    80 C29A     6.3145   5.2955   9.8993   C.ar      1 RES1   0.0000
    81 C30A     5.9058   6.2052  17.8022   C.ar      1 RES1   0.0000
    82 C31A     5.1887   5.1312  17.2879   C.ar      1 RES1   0.0000
    83 C32A     4.6417   5.1163  15.9642   C.ar      1 RES1   0.0000
    84 C33A     4.0034   4.0214  15.4744   C.ar      1 RES1   0.0000
    85 C34A     3.8625   2.8519  16.2633   C.ar      1 RES1   0.0000
    86 C35A     4.3305   2.8423  17.5384   C.ar      1 RES1   0.0000
    87 C36A     5.0113   3.9513  18.0862   C.ar      1 RES1   0.0000
    88 C37A     5.5541   3.9081  19.3631   C.ar      1 RES1   0.0000
    89 C38A     6.3034   4.9697  19.8791   C.ar      1 RES1   0.0000
    90 C39A     6.9402   4.8781  21.1279   C.ar      1 RES1   0.0000
    91 C40A     7.7173   5.8701  21.5579   C.ar      1 RES1   0.0000
    92 C41A     7.8894   7.0650  20.8157   C.ar      1 RES1   0.0000
    93 C42A     7.2834   7.2115  19.5837   C.ar      1 RES1   0.0000
    94 C43A     6.4878   6.1409  19.0666   C.ar      1 RES1   0.0000
    95 H1      11.6877  13.5121  14.1309   H         1 RES1   0.0000
    96 H2      12.3495  11.0187  14.1674   H         1 RES1   0.0000
    97 H3      13.2813  10.3670  16.2253   H         1 RES1   0.0000
    98 H4      13.3868   8.7788  18.1121   H         1 RES1   0.0000
    99 H5       9.9543   6.8117  16.5399   H         1 RES1   0.0000
   100 H6      13.5940  10.2128  12.3140   H         1 RES1   0.0000
   101 H7      14.0252   8.4174  10.6636   H         1 RES1   0.0000
   102 H8      10.2759   6.6822  11.7265   H         1 RES1   0.0000
   103 H9      11.2720   9.0933  19.5048   H         1 RES1   0.0000
   104 H10     11.1601   9.6840  21.8942   H         1 RES1   0.0000
   105 H11     11.3269   7.8946  23.6169   H         1 RES1   0.0000
   106 H12     11.5999   5.5886  22.9945   H         1 RES1   0.0000
   107 H13     11.7729   3.8724  21.2398   H         1 RES1   0.0000
   108 H14     12.2791   2.1528  19.5657   H         1 RES1   0.0000
   109 H15     12.7913   1.5555  17.2920   H         1 RES1   0.0000
   110 H16     12.8852   3.3052  15.5176   H         1 RES1   0.0000
   111 H17     12.3963   5.6291  16.0515   H         1 RES1   0.0000
   112 H18     13.6008   6.0012  12.7063   H         1 RES1   0.0000
   113 H19     14.7446   4.0424  13.5786   H         1 RES1   0.0000
   114 H20     14.9582   1.9666  12.1939   H         1 RES1   0.0000
   115 H21     14.1634   1.9570   9.8899   H         1 RES1   0.0000
   116 H22     12.9482   3.0246   8.0647   H         1 RES1   0.0000
   117 H23     11.5425   3.9931   6.2972   H         1 RES1   0.0000
   118 H24     10.1038   5.7599   5.5346   H         1 RES1   0.0000
   119 H25      9.8384   7.8704   6.8250   H         1 RES1   0.0000
   120 H26     10.9308   8.1304   9.0305   H         1 RES1   0.0000
   121 H27      6.6525  13.5121  13.9126   H         1 RES1   0.0000
   122 H28      5.9907  11.0187  13.8760   H         1 RES1   0.0000
   123 H29      5.0589  10.3670  11.8182   H         1 RES1   0.0000
   124 H30      4.9534   8.7788   9.9314   H         1 RES1   0.0000
   125 H31      8.3859   6.8117  11.5036   H         1 RES1   0.0000
   126 H32      4.7463  10.2128  15.7295   H         1 RES1   0.0000
   127 H33      4.3150   8.4174  17.3799   H         1 RES1   0.0000
   128 H34      8.0644   6.6822  16.3170   H         1 RES1   0.0000
   129 H35      7.0682   9.0933   8.5387   H         1 RES1   0.0000
   130 H36      7.1801   9.6840   6.1493   H         1 RES1   0.0000
   131 H37      7.0133   7.8946   4.4265   H         1 RES1   0.0000
   132 H38      6.7403   5.5886   5.0489   H         1 RES1   0.0000
   133 H39      6.5673   3.8724   6.8037   H         1 RES1   0.0000
   134 H40      6.0611   2.1528   8.4777   H         1 RES1   0.0000
   135 H41      5.5489   1.5555  10.7515   H         1 RES1   0.0000
   136 H42      5.4550   3.3052  12.5258   H         1 RES1   0.0000
   137 H43      5.9439   5.6291  11.9920   H         1 RES1   0.0000
   138 H44      4.7394   6.0012  15.3371   H         1 RES1   0.0000
   139 H45      3.5956   4.0424  14.4648   H         1 RES1   0.0000
   140 H46      3.3820   1.9666  15.8495   H         1 RES1   0.0000
   141 H47      4.1768   1.9570  18.1536   H         1 RES1   0.0000
   142 H48      5.3921   3.0246  19.9788   H         1 RES1   0.0000
   143 H49      6.7977   3.9931  21.7463   H         1 RES1   0.0000
   144 H50      8.2364   5.7599  22.5089   H         1 RES1   0.0000
   145 H51      8.5018   7.8704  21.2184   H         1 RES1   0.0000
   146 H52      7.4094   8.1304  19.0130   H         1 RES1   0.0000
@<TRIPOS>BOND
     1     1     4    1
     2     2     9    1
     3     3     6    1
     4     4    11   ar
     5     5     1    1
     6     6     1    2
     7     7     3    1
     8     8     7   ar
     9     9     8   ar
    10    10     3    1
    11    11    10    1
    12    12    11   ar
    13    13    12   ar
    14    14    13   ar
    15    15     4   ar
    16    16     5   ar
    17    17    16   ar
    18    18    17   ar
    19    19    18   ar
    20    20     5   ar
    21    21    14    1
    22    22    21   ar
    23    23    22   ar
    24    24    23   ar
    25    25    24   ar
    26    26    25   ar
    27    27    22   ar
    28    28    27   ar
    29    29    28   ar
    30    30    29   ar
    31    31    30   ar
    32    32    31   ar
    33    33    32   ar
    34    34    21   ar
    35    35    19    1
    36    36    35   ar
    37    37    36   ar
    38    38    37   ar
    39    39    38   ar
    40    40    39   ar
    41    41    36   ar
    42    42    41   ar
    43    43    42   ar
    44    44    43   ar
    45    45    44   ar
    46    46    45   ar
    47    47    46   ar
    48    48    35   ar
    49    49    55    1
    50    50     6    1
    51    51     1    1
    52    52     1    1
    53    53     7   ar
    54    54    53   ar
    55    55     9   ar
    56    56    50    1
    57    57    51   ar
    58    58    57   ar
    59    59    58   ar
    60    60    59   ar
    61    61    51   ar
    62    62    52   ar
    63    63    62   ar
    64    64    63   ar
    65    65    64   ar
    66    66    52   ar
    67    67    60    1
    68    68    67   ar
    69    69    68   ar
    70    70    69   ar
    71    71    70   ar
    72    72    71   ar
    73    73    68   ar
    74    74    73   ar
    75    75    74   ar
    76    76    75   ar
    77    77    76   ar
    78    78    77   ar
    79    79    78   ar
    80    80    67   ar
    81    81    65    1
    82    82    81   ar
    83    83    82   ar
    84    84    83   ar
    85    85    84   ar
    86    86    85   ar
    87    87    82   ar
    88    88    87   ar
    89    89    88   ar
    90    90    89   ar
    91    91    90   ar
    92    92    91   ar
    93    93    92   ar
    94    94    81   ar
    95    10    16    1
    96    14    15   ar
    97    19    20   ar
    98    26    27   ar
    99    29    34   ar
   100    33    34   ar
   101    40    41   ar
   102    43    48   ar
   103    47    48   ar
   104    50    53    1
   105    54    55   ar
   106    56    57    1
   107    56    62    1
   108    60    61   ar
   109    65    66   ar
   110    72    73   ar
   111    75    80   ar
   112    79    80   ar
   113    86    87   ar
   114    89    94   ar
   115    93    94   ar
   116     8    95    1
   117    10    96    1
   118    12    97    1
   119    13    98    1
   120    15    99    1
   121    17   100    1
   122    18   101    1
   123    20   102    1
   124    23   103    1
   125    24   104    1
   126    25   105    1
   127    26   106    1
   128    28   107    1
   129    30   108    1
   130    31   109    1
   131    32   110    1
   132    33   111    1
   133    37   112    1
   134    38   113    1
   135    39   114    1
   136    40   115    1
   137    42   116    1
   138    44   117    1
   139    45   118    1
   140    46   119    1
   141    47   120    1
   142    54   121    1
   143    56   122    1
   144    58   123    1
   145    59   124    1
   146    61   125    1
   147    63   126    1
   148    64   127    1
   149    66   128    1
   150    69   129    1
   151    70   130    1
   152    71   131    1
   153    72   132    1
   154    74   133    1
   155    76   134    1
   156    77   135    1
   157    78   136    1
   158    79   137    1
   159    83   138    1
   160    84   139    1
   161    85   140    1
   162    86   141    1
   163    88   142    1
   164    90   143    1
   165    91   144    1
   166    92   145    1
   167    93   146    1
@<TRIPOS>SUBSTRUCTURE
     1 RES1        1 GROUP             0 ****  ****    0  
@<TRIPOS>CRYSIN
   19.7059   28.1810   18.7178   90.0000   92.7880   90.0000    15     1
